* NGSPICE file created from gf180mcu_ocd_ip_sram__sram256x8m8wm1.ext - technology: gf180mcuD

.subckt dcap_103_novia_256x8m81 w_n205_0# a_n30_42# a_n119_86#
X0 a_n119_86# a_n30_42# a_n119_86# w_n205_0# pfet_03v3 ad=0.4717p pd=3.01u as=0 ps=0 w=1.06u l=1.74u
.ends

.subckt x018SRAM_cell1_256x8m81 m3_82_330# a_248_342# a_248_592# w_82_512# a_62_178#
+ a_430_96# a_110_96# VSUBS
X0 a_248_592# a_192_298# a_110_250# w_82_512# pfet_03v3 ad=0.1613p pd=1.39u as=0.1238p ps=1.44u w=0.28u l=0.28u
X1 a_248_342# a_192_298# a_110_250# VSUBS nfet_03v3 ad=0.171p pd=1.33u as=0.15665p ps=1.32u w=0.45u l=0.28u
X2 a_192_298# a_110_250# a_248_592# w_82_512# pfet_03v3 ad=0.1238p pd=1.44u as=0.1613p ps=1.39u w=0.28u l=0.28u
X3 a_192_298# a_110_250# a_248_342# VSUBS nfet_03v3 ad=0.15665p pd=1.32u as=0.171p ps=1.33u w=0.45u l=0.28u
X4 a_110_250# a_62_178# a_110_96# VSUBS nfet_03v3 ad=0.15665p pd=1.32u as=0.1208p ps=1.42u w=0.28u l=0.36u
X5 a_192_298# a_62_178# a_430_96# VSUBS nfet_03v3 ad=0.15665p pd=1.32u as=0.1208p ps=1.42u w=0.28u l=0.36u
.ends

.subckt x018SRAM_cell1_2x_256x8m81 018SRAM_cell1_256x8m81_0/w_82_512# 018SRAM_cell1_256x8m81_0/a_62_178#
+ 018SRAM_cell1_256x8m81_0/m3_82_330# 018SRAM_cell1_256x8m81_0/a_248_342# 018SRAM_cell1_256x8m81_0/a_248_592#
+ 018SRAM_cell1_256x8m81_1/m3_82_330# 018SRAM_cell1_256x8m81_1/a_248_342# 018SRAM_cell1_256x8m81_1/w_82_512#
+ 018SRAM_cell1_256x8m81_1/a_248_592# 018SRAM_cell1_256x8m81_1/a_62_178# 018SRAM_cell1_256x8m81_1/a_430_96#
+ 018SRAM_cell1_256x8m81_1/a_110_96# VSUBS
X018SRAM_cell1_256x8m81_0 018SRAM_cell1_256x8m81_0/m3_82_330# 018SRAM_cell1_256x8m81_0/a_248_342#
+ 018SRAM_cell1_256x8m81_0/a_248_592# 018SRAM_cell1_256x8m81_0/w_82_512# 018SRAM_cell1_256x8m81_0/a_62_178#
+ 018SRAM_cell1_256x8m81_1/a_430_96# 018SRAM_cell1_256x8m81_1/a_110_96# VSUBS x018SRAM_cell1_256x8m81
X018SRAM_cell1_256x8m81_1 018SRAM_cell1_256x8m81_1/m3_82_330# 018SRAM_cell1_256x8m81_1/a_248_342#
+ 018SRAM_cell1_256x8m81_1/a_248_592# 018SRAM_cell1_256x8m81_1/w_82_512# 018SRAM_cell1_256x8m81_1/a_62_178#
+ 018SRAM_cell1_256x8m81_1/a_430_96# 018SRAM_cell1_256x8m81_1/a_110_96# VSUBS x018SRAM_cell1_256x8m81
.ends

.subckt rarray4_256_256x8m81 018SRAM_cell1_2x_256x8m81_99/018SRAM_cell1_256x8m81_1/a_430_96#
+ 018SRAM_cell1_2x_256x8m81_33/018SRAM_cell1_256x8m81_1/a_430_96# 018SRAM_cell1_2x_256x8m81_968/018SRAM_cell1_256x8m81_1/a_110_96#
+ 018SRAM_cell1_2x_256x8m81_996/018SRAM_cell1_256x8m81_1/a_430_96# 018SRAM_cell1_2x_256x8m81_970/018SRAM_cell1_256x8m81_1/a_430_96#
+ 018SRAM_cell1_2x_256x8m81_9/018SRAM_cell1_256x8m81_1/a_430_96# 018SRAM_cell1_2x_256x8m81_477/018SRAM_cell1_256x8m81_1/a_430_96#
+ 018SRAM_cell1_2x_256x8m81_976/018SRAM_cell1_256x8m81_1/a_110_96# m3_n1397_15553#
+ 018SRAM_cell1_2x_256x8m81_96/018SRAM_cell1_256x8m81_1/a_430_96# 018SRAM_cell1_2x_256x8m81_978/018SRAM_cell1_256x8m81_1/a_110_96#
+ 018SRAM_cell1_2x_256x8m81_467/018SRAM_cell1_256x8m81_1/a_110_96# 018SRAM_cell1_2x_256x8m81_99/018SRAM_cell1_256x8m81_1/a_110_96#
+ 018SRAM_cell1_2x_256x8m81_6/018SRAM_cell1_256x8m81_1/a_430_96# 018SRAM_cell1_2x_256x8m81_972/018SRAM_cell1_256x8m81_1/a_430_96#
+ 018SRAM_cell1_2x_256x8m81_33/018SRAM_cell1_256x8m81_1/a_110_96# 018SRAM_cell1_2x_256x8m81_55/018SRAM_cell1_256x8m81_1/a_430_96#
+ 018SRAM_cell1_2x_256x8m81_996/018SRAM_cell1_256x8m81_1/a_110_96# m3_n1397_17263#
+ 018SRAM_cell1_2x_256x8m81_62/018SRAM_cell1_256x8m81_1/a_430_96# 018SRAM_cell1_2x_256x8m81_457/018SRAM_cell1_256x8m81_1/a_430_96#
+ 018SRAM_cell1_2x_256x8m81_970/018SRAM_cell1_256x8m81_1/a_110_96# 018SRAM_cell1_2x_256x8m81_82/018SRAM_cell1_256x8m81_1/a_110_96#
+ 018SRAM_cell1_2x_256x8m81_89/018SRAM_cell1_256x8m81_1/a_110_96# m3_n1397_247# 018SRAM_cell1_2x_256x8m81_998/018SRAM_cell1_256x8m81_1/a_430_96#
+ 018SRAM_cell1_2x_256x8m81_9/018SRAM_cell1_256x8m81_1/a_110_96# 018SRAM_cell1_2x_256x8m81_49/018SRAM_cell1_256x8m81_1/a_430_96#
+ 018SRAM_cell1_2x_256x8m81_477/018SRAM_cell1_256x8m81_1/a_110_96# m3_n1397_18475#
+ 018SRAM_cell1_2x_256x8m81_8/018SRAM_cell1_256x8m81_1/a_430_96# m3_n1397_1009# 018SRAM_cell1_2x_256x8m81_96/018SRAM_cell1_256x8m81_1/a_110_96#
+ m3_n1397_11203# m3_n1397_19687# 018SRAM_cell1_2x_256x8m81_964/018SRAM_cell1_256x8m81_1/a_430_96#
+ 018SRAM_cell1_2x_256x8m81_81/018SRAM_cell1_256x8m81_1/a_430_96# m3_n1397_3433# m3_n1397_19189#
+ 018SRAM_cell1_2x_256x8m81_46/018SRAM_cell1_256x8m81_1/a_430_96# 018SRAM_cell1_2x_256x8m81_6/018SRAM_cell1_256x8m81_1/a_110_96#
+ 018SRAM_cell1_2x_256x8m81_23/018SRAM_cell1_256x8m81_1/a_110_96# m3_n1397_16765#
+ 018SRAM_cell1_2x_256x8m81_966/018SRAM_cell1_256x8m81_1/a_430_96# 018SRAM_cell1_2x_256x8m81_65/018SRAM_cell1_256x8m81_1/a_430_96#
+ m3_n1397_7069# m3_n1397_8281# 018SRAM_cell1_2x_256x8m81_972/018SRAM_cell1_256x8m81_1/a_110_96#
+ m3_n1397_9493# 018SRAM_cell1_2x_256x8m81_475/018SRAM_cell1_256x8m81_1/a_430_96#
+ 018SRAM_cell1_2x_256x8m81_467/018SRAM_cell1_256x8m81_1/a_430_96# 018SRAM_cell1_2x_256x8m81_992/018SRAM_cell1_256x8m81_1/a_110_96#
+ 018SRAM_cell1_2x_256x8m81_98/018SRAM_cell1_256x8m81_1/a_110_96# m3_n1397_6355# 018SRAM_cell1_2x_256x8m81_55/018SRAM_cell1_256x8m81_1/a_110_96#
+ m3_n1397_11917# m3_n1397_3931# 018SRAM_cell1_2x_256x8m81_62/018SRAM_cell1_256x8m81_1/a_110_96#
+ 018SRAM_cell1_2x_256x8m81_98/018SRAM_cell1_256x8m81_1/a_430_96# 018SRAM_cell1_2x_256x8m81_457/018SRAM_cell1_256x8m81_1/a_110_96#
+ 018SRAM_cell1_2x_256x8m81_992/018SRAM_cell1_256x8m81_1/a_430_96# m3_n1397_5857#
+ m3_n1397_14341# m3_n1397_14839# m3_n1397_9991# m3_n1397_12415# 018SRAM_cell1_2x_256x8m81_998/018SRAM_cell1_256x8m81_1/a_110_96#
+ 018SRAM_cell1_2x_256x8m81_23/018SRAM_cell1_256x8m81_1/a_430_96# 018SRAM_cell1_2x_256x8m81_49/018SRAM_cell1_256x8m81_1/a_110_96#
+ 018SRAM_cell1_2x_256x8m81_994/018SRAM_cell1_256x8m81_1/a_110_96# m3_n1397_2221#
+ m3_n1397_4645# m3_n1397_1507# 018SRAM_cell1_2x_256x8m81_976/018SRAM_cell1_256x8m81_1/a_430_96#
+ 018SRAM_cell1_2x_256x8m81_8/018SRAM_cell1_256x8m81_1/a_110_96# 018SRAM_cell1_2x_256x8m81_82/018SRAM_cell1_256x8m81_1/a_430_96#
+ m3_n1397_2719# 018SRAM_cell1_2x_256x8m81_978/018SRAM_cell1_256x8m81_1/a_430_96#
+ m3_n1397_10705# m3_n1397_13129# 018SRAM_cell1_2x_256x8m81_968/018SRAM_cell1_256x8m81_1/a_430_96#
+ 018SRAM_cell1_2x_256x8m81_89/018SRAM_cell1_256x8m81_1/a_430_96# m3_n1397_5143# 018SRAM_cell1_2x_256x8m81_964/018SRAM_cell1_256x8m81_1/a_110_96#
+ 018SRAM_cell1_2x_256x8m81_974/018SRAM_cell1_256x8m81_1/a_110_96# 018SRAM_cell1_2x_256x8m81_81/018SRAM_cell1_256x8m81_1/a_110_96#
+ m3_n1397_17977# 018SRAM_cell1_2x_256x8m81_974/018SRAM_cell1_256x8m81_1/a_430_96#
+ m3_n1397_7567# 018SRAM_cell1_2x_256x8m81_46/018SRAM_cell1_256x8m81_1/a_110_96# m3_n1397_16051#
+ 018SRAM_cell1_2x_256x8m81_966/018SRAM_cell1_256x8m81_1/a_110_96# m3_n1397_8779#
+ 018SRAM_cell1_2x_256x8m81_475/018SRAM_cell1_256x8m81_1/a_110_96# m3_n1397_13627#
+ 018SRAM_cell1_2x_256x8m81_65/018SRAM_cell1_256x8m81_1/a_110_96# 018SRAM_cell1_2x_256x8m81_994/018SRAM_cell1_256x8m81_1/a_430_96#
+ 018SRAM_strap1_bndry_256x8m81_9/w_91_512# VSUBS
X018SRAM_cell1_2x_256x8m81_301 018SRAM_strap1_bndry_256x8m81_9/w_91_512# m3_n1397_2719#
+ m3_n1397_2719# VSUBS 018SRAM_strap1_bndry_256x8m81_9/w_91_512# m3_n1397_3433# VSUBS
+ 018SRAM_strap1_bndry_256x8m81_9/w_91_512# 018SRAM_strap1_bndry_256x8m81_9/w_91_512#
+ m3_n1397_3433# 018SRAM_cell1_2x_256x8m81_994/018SRAM_cell1_256x8m81_1/a_430_96#
+ 018SRAM_cell1_2x_256x8m81_994/018SRAM_cell1_256x8m81_1/a_110_96# VSUBS x018SRAM_cell1_2x_256x8m81
X018SRAM_cell1_2x_256x8m81_345 018SRAM_strap1_bndry_256x8m81_9/w_91_512# m3_n1397_1507#
+ m3_n1397_1507# VSUBS 018SRAM_strap1_bndry_256x8m81_9/w_91_512# m3_n1397_2221# VSUBS
+ 018SRAM_strap1_bndry_256x8m81_9/w_91_512# 018SRAM_strap1_bndry_256x8m81_9/w_91_512#
+ m3_n1397_2221# 018SRAM_cell1_2x_256x8m81_992/018SRAM_cell1_256x8m81_1/a_430_96#
+ 018SRAM_cell1_2x_256x8m81_992/018SRAM_cell1_256x8m81_1/a_110_96# VSUBS x018SRAM_cell1_2x_256x8m81
X018SRAM_cell1_2x_256x8m81_334 018SRAM_strap1_bndry_256x8m81_9/w_91_512# m3_n1397_6355#
+ m3_n1397_6355# VSUBS 018SRAM_strap1_bndry_256x8m81_9/w_91_512# m3_n1397_7069# VSUBS
+ 018SRAM_strap1_bndry_256x8m81_9/w_91_512# 018SRAM_strap1_bndry_256x8m81_9/w_91_512#
+ m3_n1397_7069# 018SRAM_cell1_2x_256x8m81_467/018SRAM_cell1_256x8m81_1/a_430_96#
+ 018SRAM_cell1_2x_256x8m81_467/018SRAM_cell1_256x8m81_1/a_110_96# VSUBS x018SRAM_cell1_2x_256x8m81
X018SRAM_cell1_2x_256x8m81_389 018SRAM_strap1_bndry_256x8m81_9/w_91_512# m3_n1397_14839#
+ m3_n1397_14839# VSUBS 018SRAM_strap1_bndry_256x8m81_9/w_91_512# m3_n1397_15553#
+ VSUBS 018SRAM_strap1_bndry_256x8m81_9/w_91_512# 018SRAM_strap1_bndry_256x8m81_9/w_91_512#
+ m3_n1397_15553# 018SRAM_cell1_2x_256x8m81_467/018SRAM_cell1_256x8m81_1/a_430_96#
+ 018SRAM_cell1_2x_256x8m81_467/018SRAM_cell1_256x8m81_1/a_110_96# VSUBS x018SRAM_cell1_2x_256x8m81
X018SRAM_cell1_2x_256x8m81_378 018SRAM_strap1_bndry_256x8m81_9/w_91_512# m3_n1397_11203#
+ m3_n1397_11203# VSUBS 018SRAM_strap1_bndry_256x8m81_9/w_91_512# m3_n1397_11917#
+ VSUBS 018SRAM_strap1_bndry_256x8m81_9/w_91_512# 018SRAM_strap1_bndry_256x8m81_9/w_91_512#
+ m3_n1397_11917# 018SRAM_cell1_2x_256x8m81_477/018SRAM_cell1_256x8m81_1/a_430_96#
+ 018SRAM_cell1_2x_256x8m81_477/018SRAM_cell1_256x8m81_1/a_110_96# VSUBS x018SRAM_cell1_2x_256x8m81
X018SRAM_cell1_2x_256x8m81_367 018SRAM_strap1_bndry_256x8m81_9/w_91_512# m3_n1397_13627#
+ m3_n1397_13627# VSUBS 018SRAM_strap1_bndry_256x8m81_9/w_91_512# m3_n1397_14341#
+ VSUBS 018SRAM_strap1_bndry_256x8m81_9/w_91_512# 018SRAM_strap1_bndry_256x8m81_9/w_91_512#
+ m3_n1397_14341# 018SRAM_cell1_2x_256x8m81_477/018SRAM_cell1_256x8m81_1/a_430_96#
+ 018SRAM_cell1_2x_256x8m81_477/018SRAM_cell1_256x8m81_1/a_110_96# VSUBS x018SRAM_cell1_2x_256x8m81
X018SRAM_cell1_2x_256x8m81_323 018SRAM_strap1_bndry_256x8m81_9/w_91_512# m3_n1397_2719#
+ m3_n1397_2719# VSUBS 018SRAM_strap1_bndry_256x8m81_9/w_91_512# m3_n1397_3433# VSUBS
+ 018SRAM_strap1_bndry_256x8m81_9/w_91_512# 018SRAM_strap1_bndry_256x8m81_9/w_91_512#
+ m3_n1397_3433# 018SRAM_cell1_2x_256x8m81_996/018SRAM_cell1_256x8m81_1/a_430_96#
+ 018SRAM_cell1_2x_256x8m81_996/018SRAM_cell1_256x8m81_1/a_110_96# VSUBS x018SRAM_cell1_2x_256x8m81
X018SRAM_cell1_2x_256x8m81_312 018SRAM_strap1_bndry_256x8m81_9/w_91_512# m3_n1397_1507#
+ m3_n1397_1507# VSUBS 018SRAM_strap1_bndry_256x8m81_9/w_91_512# m3_n1397_2221# VSUBS
+ 018SRAM_strap1_bndry_256x8m81_9/w_91_512# 018SRAM_strap1_bndry_256x8m81_9/w_91_512#
+ m3_n1397_2221# 018SRAM_cell1_2x_256x8m81_998/018SRAM_cell1_256x8m81_1/a_430_96#
+ 018SRAM_cell1_2x_256x8m81_998/018SRAM_cell1_256x8m81_1/a_110_96# VSUBS x018SRAM_cell1_2x_256x8m81
X018SRAM_cell1_2x_256x8m81_356 018SRAM_strap1_bndry_256x8m81_9/w_91_512# m3_n1397_12415#
+ m3_n1397_12415# VSUBS 018SRAM_strap1_bndry_256x8m81_9/w_91_512# m3_n1397_13129#
+ VSUBS 018SRAM_strap1_bndry_256x8m81_9/w_91_512# 018SRAM_strap1_bndry_256x8m81_9/w_91_512#
+ m3_n1397_13129# 018SRAM_cell1_2x_256x8m81_998/018SRAM_cell1_256x8m81_1/a_430_96#
+ 018SRAM_cell1_2x_256x8m81_998/018SRAM_cell1_256x8m81_1/a_110_96# VSUBS x018SRAM_cell1_2x_256x8m81
X018SRAM_cell1_2x_256x8m81_131 018SRAM_strap1_bndry_256x8m81_9/w_91_512# m3_n1397_17263#
+ m3_n1397_17263# VSUBS 018SRAM_strap1_bndry_256x8m81_9/w_91_512# m3_n1397_17977#
+ VSUBS 018SRAM_strap1_bndry_256x8m81_9/w_91_512# 018SRAM_strap1_bndry_256x8m81_9/w_91_512#
+ m3_n1397_17977# 018SRAM_cell1_2x_256x8m81_89/018SRAM_cell1_256x8m81_1/a_430_96#
+ 018SRAM_cell1_2x_256x8m81_89/018SRAM_cell1_256x8m81_1/a_110_96# VSUBS x018SRAM_cell1_2x_256x8m81
X018SRAM_cell1_2x_256x8m81_142 018SRAM_strap1_bndry_256x8m81_9/w_91_512# m3_n1397_17263#
+ m3_n1397_17263# VSUBS 018SRAM_strap1_bndry_256x8m81_9/w_91_512# m3_n1397_17977#
+ VSUBS 018SRAM_strap1_bndry_256x8m81_9/w_91_512# 018SRAM_strap1_bndry_256x8m81_9/w_91_512#
+ m3_n1397_17977# 018SRAM_cell1_2x_256x8m81_81/018SRAM_cell1_256x8m81_1/a_430_96#
+ 018SRAM_cell1_2x_256x8m81_81/018SRAM_cell1_256x8m81_1/a_110_96# VSUBS x018SRAM_cell1_2x_256x8m81
X018SRAM_cell1_2x_256x8m81_120 018SRAM_strap1_bndry_256x8m81_9/w_91_512# m3_n1397_11203#
+ m3_n1397_11203# VSUBS 018SRAM_strap1_bndry_256x8m81_9/w_91_512# m3_n1397_11917#
+ VSUBS 018SRAM_strap1_bndry_256x8m81_9/w_91_512# 018SRAM_strap1_bndry_256x8m81_9/w_91_512#
+ m3_n1397_11917# 018SRAM_cell1_2x_256x8m81_62/018SRAM_cell1_256x8m81_1/a_430_96#
+ 018SRAM_cell1_2x_256x8m81_62/018SRAM_cell1_256x8m81_1/a_110_96# VSUBS x018SRAM_cell1_2x_256x8m81
X018SRAM_cell1_2x_256x8m81_153 018SRAM_strap1_bndry_256x8m81_9/w_91_512# m3_n1397_14839#
+ m3_n1397_14839# VSUBS 018SRAM_strap1_bndry_256x8m81_9/w_91_512# m3_n1397_15553#
+ VSUBS 018SRAM_strap1_bndry_256x8m81_9/w_91_512# 018SRAM_strap1_bndry_256x8m81_9/w_91_512#
+ m3_n1397_15553# 018SRAM_cell1_2x_256x8m81_98/018SRAM_cell1_256x8m81_1/a_430_96#
+ 018SRAM_cell1_2x_256x8m81_98/018SRAM_cell1_256x8m81_1/a_110_96# VSUBS x018SRAM_cell1_2x_256x8m81
X018SRAM_cell1_2x_256x8m81_186 018SRAM_strap1_bndry_256x8m81_9/w_91_512# m3_n1397_14839#
+ m3_n1397_14839# VSUBS 018SRAM_strap1_bndry_256x8m81_9/w_91_512# m3_n1397_15553#
+ VSUBS 018SRAM_strap1_bndry_256x8m81_9/w_91_512# 018SRAM_strap1_bndry_256x8m81_9/w_91_512#
+ m3_n1397_15553# 018SRAM_cell1_2x_256x8m81_8/018SRAM_cell1_256x8m81_1/a_430_96# 018SRAM_cell1_2x_256x8m81_8/018SRAM_cell1_256x8m81_1/a_110_96#
+ VSUBS x018SRAM_cell1_2x_256x8m81
X018SRAM_cell1_2x_256x8m81_197 018SRAM_strap1_bndry_256x8m81_9/w_91_512# m3_n1397_16051#
+ m3_n1397_16051# VSUBS 018SRAM_strap1_bndry_256x8m81_9/w_91_512# m3_n1397_16765#
+ VSUBS 018SRAM_strap1_bndry_256x8m81_9/w_91_512# 018SRAM_strap1_bndry_256x8m81_9/w_91_512#
+ m3_n1397_16765# 018SRAM_cell1_2x_256x8m81_46/018SRAM_cell1_256x8m81_1/a_430_96#
+ 018SRAM_cell1_2x_256x8m81_46/018SRAM_cell1_256x8m81_1/a_110_96# VSUBS x018SRAM_cell1_2x_256x8m81
X018SRAM_cell1_2x_256x8m81_164 018SRAM_strap1_bndry_256x8m81_9/w_91_512# m3_n1397_13627#
+ m3_n1397_13627# VSUBS 018SRAM_strap1_bndry_256x8m81_9/w_91_512# m3_n1397_14341#
+ VSUBS 018SRAM_strap1_bndry_256x8m81_9/w_91_512# 018SRAM_strap1_bndry_256x8m81_9/w_91_512#
+ m3_n1397_14341# 018SRAM_cell1_2x_256x8m81_6/018SRAM_cell1_256x8m81_1/a_430_96# 018SRAM_cell1_2x_256x8m81_6/018SRAM_cell1_256x8m81_1/a_110_96#
+ VSUBS x018SRAM_cell1_2x_256x8m81
X018SRAM_cell1_2x_256x8m81_175 018SRAM_strap1_bndry_256x8m81_9/w_91_512# m3_n1397_16051#
+ m3_n1397_16051# VSUBS 018SRAM_strap1_bndry_256x8m81_9/w_91_512# m3_n1397_16765#
+ VSUBS 018SRAM_strap1_bndry_256x8m81_9/w_91_512# 018SRAM_strap1_bndry_256x8m81_9/w_91_512#
+ m3_n1397_16765# 018SRAM_cell1_2x_256x8m81_9/018SRAM_cell1_256x8m81_1/a_430_96# 018SRAM_cell1_2x_256x8m81_9/018SRAM_cell1_256x8m81_1/a_110_96#
+ VSUBS x018SRAM_cell1_2x_256x8m81
X018SRAM_cell1_2x_256x8m81_40 018SRAM_strap1_bndry_256x8m81_9/w_91_512# m3_n1397_1507#
+ m3_n1397_1507# VSUBS 018SRAM_strap1_bndry_256x8m81_9/w_91_512# m3_n1397_2221# VSUBS
+ 018SRAM_strap1_bndry_256x8m81_9/w_91_512# 018SRAM_strap1_bndry_256x8m81_9/w_91_512#
+ m3_n1397_2221# 018SRAM_cell1_2x_256x8m81_46/018SRAM_cell1_256x8m81_1/a_430_96# 018SRAM_cell1_2x_256x8m81_46/018SRAM_cell1_256x8m81_1/a_110_96#
+ VSUBS x018SRAM_cell1_2x_256x8m81
X018SRAM_cell1_2x_256x8m81_51 018SRAM_strap1_bndry_256x8m81_9/w_91_512# m3_n1397_1507#
+ m3_n1397_1507# VSUBS 018SRAM_strap1_bndry_256x8m81_9/w_91_512# m3_n1397_2221# VSUBS
+ 018SRAM_strap1_bndry_256x8m81_9/w_91_512# 018SRAM_strap1_bndry_256x8m81_9/w_91_512#
+ m3_n1397_2221# 018SRAM_cell1_2x_256x8m81_55/018SRAM_cell1_256x8m81_1/a_430_96# 018SRAM_cell1_2x_256x8m81_55/018SRAM_cell1_256x8m81_1/a_110_96#
+ VSUBS x018SRAM_cell1_2x_256x8m81
X018SRAM_cell1_2x_256x8m81_95 018SRAM_strap1_bndry_256x8m81_9/w_91_512# m3_n1397_2719#
+ m3_n1397_2719# VSUBS 018SRAM_strap1_bndry_256x8m81_9/w_91_512# m3_n1397_3433# VSUBS
+ 018SRAM_strap1_bndry_256x8m81_9/w_91_512# 018SRAM_strap1_bndry_256x8m81_9/w_91_512#
+ m3_n1397_3433# 018SRAM_cell1_2x_256x8m81_96/018SRAM_cell1_256x8m81_1/a_430_96# 018SRAM_cell1_2x_256x8m81_96/018SRAM_cell1_256x8m81_1/a_110_96#
+ VSUBS x018SRAM_cell1_2x_256x8m81
X018SRAM_cell1_2x_256x8m81_62 018SRAM_strap1_bndry_256x8m81_9/w_91_512# m3_n1397_7567#
+ m3_n1397_7567# VSUBS 018SRAM_strap1_bndry_256x8m81_9/w_91_512# m3_n1397_8281# VSUBS
+ 018SRAM_strap1_bndry_256x8m81_9/w_91_512# 018SRAM_strap1_bndry_256x8m81_9/w_91_512#
+ m3_n1397_8281# 018SRAM_cell1_2x_256x8m81_62/018SRAM_cell1_256x8m81_1/a_430_96# 018SRAM_cell1_2x_256x8m81_62/018SRAM_cell1_256x8m81_1/a_110_96#
+ VSUBS x018SRAM_cell1_2x_256x8m81
X018SRAM_cell1_2x_256x8m81_73 018SRAM_strap1_bndry_256x8m81_9/w_91_512# m3_n1397_3931#
+ m3_n1397_3931# VSUBS 018SRAM_strap1_bndry_256x8m81_9/w_91_512# m3_n1397_4645# VSUBS
+ 018SRAM_strap1_bndry_256x8m81_9/w_91_512# 018SRAM_strap1_bndry_256x8m81_9/w_91_512#
+ m3_n1397_4645# 018SRAM_cell1_2x_256x8m81_82/018SRAM_cell1_256x8m81_1/a_430_96# 018SRAM_cell1_2x_256x8m81_82/018SRAM_cell1_256x8m81_1/a_110_96#
+ VSUBS x018SRAM_cell1_2x_256x8m81
X018SRAM_cell1_2x_256x8m81_84 018SRAM_strap1_bndry_256x8m81_9/w_91_512# m3_n1397_1507#
+ m3_n1397_1507# VSUBS 018SRAM_strap1_bndry_256x8m81_9/w_91_512# m3_n1397_2221# VSUBS
+ 018SRAM_strap1_bndry_256x8m81_9/w_91_512# 018SRAM_strap1_bndry_256x8m81_9/w_91_512#
+ m3_n1397_2221# 018SRAM_cell1_2x_256x8m81_98/018SRAM_cell1_256x8m81_1/a_430_96# 018SRAM_cell1_2x_256x8m81_98/018SRAM_cell1_256x8m81_1/a_110_96#
+ VSUBS x018SRAM_cell1_2x_256x8m81
X018SRAM_cell1_2x_256x8m81_302 018SRAM_strap1_bndry_256x8m81_9/w_91_512# m3_n1397_3931#
+ m3_n1397_3931# VSUBS 018SRAM_strap1_bndry_256x8m81_9/w_91_512# m3_n1397_4645# VSUBS
+ 018SRAM_strap1_bndry_256x8m81_9/w_91_512# 018SRAM_strap1_bndry_256x8m81_9/w_91_512#
+ m3_n1397_4645# 018SRAM_cell1_2x_256x8m81_994/018SRAM_cell1_256x8m81_1/a_430_96#
+ 018SRAM_cell1_2x_256x8m81_994/018SRAM_cell1_256x8m81_1/a_110_96# VSUBS x018SRAM_cell1_2x_256x8m81
X018SRAM_cell1_2x_256x8m81_379 018SRAM_strap1_bndry_256x8m81_9/w_91_512# m3_n1397_11203#
+ m3_n1397_11203# VSUBS 018SRAM_strap1_bndry_256x8m81_9/w_91_512# m3_n1397_11917#
+ VSUBS 018SRAM_strap1_bndry_256x8m81_9/w_91_512# 018SRAM_strap1_bndry_256x8m81_9/w_91_512#
+ m3_n1397_11917# 018SRAM_cell1_2x_256x8m81_992/018SRAM_cell1_256x8m81_1/a_430_96#
+ 018SRAM_cell1_2x_256x8m81_992/018SRAM_cell1_256x8m81_1/a_110_96# VSUBS x018SRAM_cell1_2x_256x8m81
X018SRAM_cell1_2x_256x8m81_346 018SRAM_strap1_bndry_256x8m81_9/w_91_512# m3_n1397_1507#
+ m3_n1397_1507# VSUBS 018SRAM_strap1_bndry_256x8m81_9/w_91_512# m3_n1397_2221# VSUBS
+ 018SRAM_strap1_bndry_256x8m81_9/w_91_512# 018SRAM_strap1_bndry_256x8m81_9/w_91_512#
+ m3_n1397_2221# 018SRAM_cell1_2x_256x8m81_457/018SRAM_cell1_256x8m81_1/a_430_96#
+ 018SRAM_cell1_2x_256x8m81_457/018SRAM_cell1_256x8m81_1/a_110_96# VSUBS x018SRAM_cell1_2x_256x8m81
X018SRAM_cell1_2x_256x8m81_335 018SRAM_strap1_bndry_256x8m81_9/w_91_512# m3_n1397_7567#
+ m3_n1397_7567# VSUBS 018SRAM_strap1_bndry_256x8m81_9/w_91_512# m3_n1397_8281# VSUBS
+ 018SRAM_strap1_bndry_256x8m81_9/w_91_512# 018SRAM_strap1_bndry_256x8m81_9/w_91_512#
+ m3_n1397_8281# 018SRAM_cell1_2x_256x8m81_467/018SRAM_cell1_256x8m81_1/a_430_96#
+ 018SRAM_cell1_2x_256x8m81_467/018SRAM_cell1_256x8m81_1/a_110_96# VSUBS x018SRAM_cell1_2x_256x8m81
X018SRAM_cell1_2x_256x8m81_368 018SRAM_strap1_bndry_256x8m81_9/w_91_512# m3_n1397_14839#
+ m3_n1397_14839# VSUBS 018SRAM_strap1_bndry_256x8m81_9/w_91_512# m3_n1397_15553#
+ VSUBS 018SRAM_strap1_bndry_256x8m81_9/w_91_512# 018SRAM_strap1_bndry_256x8m81_9/w_91_512#
+ m3_n1397_15553# 018SRAM_cell1_2x_256x8m81_477/018SRAM_cell1_256x8m81_1/a_430_96#
+ 018SRAM_cell1_2x_256x8m81_477/018SRAM_cell1_256x8m81_1/a_110_96# VSUBS x018SRAM_cell1_2x_256x8m81
X018SRAM_cell1_2x_256x8m81_324 018SRAM_strap1_bndry_256x8m81_9/w_91_512# m3_n1397_3931#
+ m3_n1397_3931# VSUBS 018SRAM_strap1_bndry_256x8m81_9/w_91_512# m3_n1397_4645# VSUBS
+ 018SRAM_strap1_bndry_256x8m81_9/w_91_512# 018SRAM_strap1_bndry_256x8m81_9/w_91_512#
+ m3_n1397_4645# 018SRAM_cell1_2x_256x8m81_996/018SRAM_cell1_256x8m81_1/a_430_96#
+ 018SRAM_cell1_2x_256x8m81_996/018SRAM_cell1_256x8m81_1/a_110_96# VSUBS x018SRAM_cell1_2x_256x8m81
X018SRAM_cell1_2x_256x8m81_313 018SRAM_strap1_bndry_256x8m81_9/w_91_512# m3_n1397_247#
+ m3_n1397_247# VSUBS 018SRAM_strap1_bndry_256x8m81_9/w_91_512# m3_n1397_1009# VSUBS
+ 018SRAM_strap1_bndry_256x8m81_9/w_91_512# 018SRAM_strap1_bndry_256x8m81_9/w_91_512#
+ m3_n1397_1009# 018SRAM_cell1_2x_256x8m81_998/018SRAM_cell1_256x8m81_1/a_430_96#
+ 018SRAM_cell1_2x_256x8m81_998/018SRAM_cell1_256x8m81_1/a_110_96# VSUBS x018SRAM_cell1_2x_256x8m81
X018SRAM_cell1_2x_256x8m81_357 018SRAM_strap1_bndry_256x8m81_9/w_91_512# m3_n1397_13627#
+ m3_n1397_13627# VSUBS 018SRAM_strap1_bndry_256x8m81_9/w_91_512# m3_n1397_14341#
+ VSUBS 018SRAM_strap1_bndry_256x8m81_9/w_91_512# 018SRAM_strap1_bndry_256x8m81_9/w_91_512#
+ m3_n1397_14341# 018SRAM_cell1_2x_256x8m81_998/018SRAM_cell1_256x8m81_1/a_430_96#
+ 018SRAM_cell1_2x_256x8m81_998/018SRAM_cell1_256x8m81_1/a_110_96# VSUBS x018SRAM_cell1_2x_256x8m81
X018SRAM_cell1_2x_256x8m81_187 018SRAM_strap1_bndry_256x8m81_9/w_91_512# m3_n1397_16051#
+ m3_n1397_16051# VSUBS 018SRAM_strap1_bndry_256x8m81_9/w_91_512# m3_n1397_16765#
+ VSUBS 018SRAM_strap1_bndry_256x8m81_9/w_91_512# 018SRAM_strap1_bndry_256x8m81_9/w_91_512#
+ m3_n1397_16765# 018SRAM_cell1_2x_256x8m81_8/018SRAM_cell1_256x8m81_1/a_430_96# 018SRAM_cell1_2x_256x8m81_8/018SRAM_cell1_256x8m81_1/a_110_96#
+ VSUBS x018SRAM_cell1_2x_256x8m81
X018SRAM_cell1_2x_256x8m81_198 018SRAM_strap1_bndry_256x8m81_9/w_91_512# m3_n1397_17263#
+ m3_n1397_17263# VSUBS 018SRAM_strap1_bndry_256x8m81_9/w_91_512# m3_n1397_17977#
+ VSUBS 018SRAM_strap1_bndry_256x8m81_9/w_91_512# 018SRAM_strap1_bndry_256x8m81_9/w_91_512#
+ m3_n1397_17977# 018SRAM_cell1_2x_256x8m81_46/018SRAM_cell1_256x8m81_1/a_430_96#
+ 018SRAM_cell1_2x_256x8m81_46/018SRAM_cell1_256x8m81_1/a_110_96# VSUBS x018SRAM_cell1_2x_256x8m81
X018SRAM_cell1_2x_256x8m81_165 018SRAM_strap1_bndry_256x8m81_9/w_91_512# m3_n1397_17263#
+ m3_n1397_17263# VSUBS 018SRAM_strap1_bndry_256x8m81_9/w_91_512# m3_n1397_17977#
+ VSUBS 018SRAM_strap1_bndry_256x8m81_9/w_91_512# 018SRAM_strap1_bndry_256x8m81_9/w_91_512#
+ m3_n1397_17977# 018SRAM_cell1_2x_256x8m81_6/018SRAM_cell1_256x8m81_1/a_430_96# 018SRAM_cell1_2x_256x8m81_6/018SRAM_cell1_256x8m81_1/a_110_96#
+ VSUBS x018SRAM_cell1_2x_256x8m81
X018SRAM_cell1_2x_256x8m81_176 018SRAM_strap1_bndry_256x8m81_9/w_91_512# m3_n1397_17263#
+ m3_n1397_17263# VSUBS 018SRAM_strap1_bndry_256x8m81_9/w_91_512# m3_n1397_17977#
+ VSUBS 018SRAM_strap1_bndry_256x8m81_9/w_91_512# 018SRAM_strap1_bndry_256x8m81_9/w_91_512#
+ m3_n1397_17977# 018SRAM_cell1_2x_256x8m81_9/018SRAM_cell1_256x8m81_1/a_430_96# 018SRAM_cell1_2x_256x8m81_9/018SRAM_cell1_256x8m81_1/a_110_96#
+ VSUBS x018SRAM_cell1_2x_256x8m81
X018SRAM_cell1_2x_256x8m81_132 018SRAM_strap1_bndry_256x8m81_9/w_91_512# m3_n1397_11203#
+ m3_n1397_11203# VSUBS 018SRAM_strap1_bndry_256x8m81_9/w_91_512# m3_n1397_11917#
+ VSUBS 018SRAM_strap1_bndry_256x8m81_9/w_91_512# 018SRAM_strap1_bndry_256x8m81_9/w_91_512#
+ m3_n1397_11917# 018SRAM_cell1_2x_256x8m81_89/018SRAM_cell1_256x8m81_1/a_430_96#
+ 018SRAM_cell1_2x_256x8m81_89/018SRAM_cell1_256x8m81_1/a_110_96# VSUBS x018SRAM_cell1_2x_256x8m81
X018SRAM_cell1_2x_256x8m81_143 018SRAM_strap1_bndry_256x8m81_9/w_91_512# m3_n1397_13627#
+ m3_n1397_13627# VSUBS 018SRAM_strap1_bndry_256x8m81_9/w_91_512# m3_n1397_14341#
+ VSUBS 018SRAM_strap1_bndry_256x8m81_9/w_91_512# 018SRAM_strap1_bndry_256x8m81_9/w_91_512#
+ m3_n1397_14341# 018SRAM_cell1_2x_256x8m81_62/018SRAM_cell1_256x8m81_1/a_430_96#
+ 018SRAM_cell1_2x_256x8m81_62/018SRAM_cell1_256x8m81_1/a_110_96# VSUBS x018SRAM_cell1_2x_256x8m81
X018SRAM_cell1_2x_256x8m81_121 018SRAM_strap1_bndry_256x8m81_9/w_91_512# m3_n1397_12415#
+ m3_n1397_12415# VSUBS 018SRAM_strap1_bndry_256x8m81_9/w_91_512# m3_n1397_13129#
+ VSUBS 018SRAM_strap1_bndry_256x8m81_9/w_91_512# 018SRAM_strap1_bndry_256x8m81_9/w_91_512#
+ m3_n1397_13129# 018SRAM_cell1_2x_256x8m81_62/018SRAM_cell1_256x8m81_1/a_430_96#
+ 018SRAM_cell1_2x_256x8m81_62/018SRAM_cell1_256x8m81_1/a_110_96# VSUBS x018SRAM_cell1_2x_256x8m81
X018SRAM_cell1_2x_256x8m81_110 018SRAM_strap1_bndry_256x8m81_9/w_91_512# m3_n1397_1507#
+ m3_n1397_1507# VSUBS 018SRAM_strap1_bndry_256x8m81_9/w_91_512# m3_n1397_2221# VSUBS
+ 018SRAM_strap1_bndry_256x8m81_9/w_91_512# 018SRAM_strap1_bndry_256x8m81_9/w_91_512#
+ m3_n1397_2221# 018SRAM_cell1_2x_256x8m81_82/018SRAM_cell1_256x8m81_1/a_430_96# 018SRAM_cell1_2x_256x8m81_82/018SRAM_cell1_256x8m81_1/a_110_96#
+ VSUBS x018SRAM_cell1_2x_256x8m81
X018SRAM_cell1_2x_256x8m81_154 018SRAM_strap1_bndry_256x8m81_9/w_91_512# m3_n1397_16051#
+ m3_n1397_16051# VSUBS 018SRAM_strap1_bndry_256x8m81_9/w_91_512# m3_n1397_16765#
+ VSUBS 018SRAM_strap1_bndry_256x8m81_9/w_91_512# 018SRAM_strap1_bndry_256x8m81_9/w_91_512#
+ m3_n1397_16765# 018SRAM_cell1_2x_256x8m81_98/018SRAM_cell1_256x8m81_1/a_430_96#
+ 018SRAM_cell1_2x_256x8m81_98/018SRAM_cell1_256x8m81_1/a_110_96# VSUBS x018SRAM_cell1_2x_256x8m81
X018SRAM_cell1_2x_256x8m81_41 018SRAM_strap1_bndry_256x8m81_9/w_91_512# m3_n1397_247#
+ m3_n1397_247# VSUBS 018SRAM_strap1_bndry_256x8m81_9/w_91_512# m3_n1397_1009# VSUBS
+ 018SRAM_strap1_bndry_256x8m81_9/w_91_512# 018SRAM_strap1_bndry_256x8m81_9/w_91_512#
+ m3_n1397_1009# 018SRAM_cell1_2x_256x8m81_46/018SRAM_cell1_256x8m81_1/a_430_96# 018SRAM_cell1_2x_256x8m81_46/018SRAM_cell1_256x8m81_1/a_110_96#
+ VSUBS x018SRAM_cell1_2x_256x8m81
X018SRAM_cell1_2x_256x8m81_52 018SRAM_strap1_bndry_256x8m81_9/w_91_512# m3_n1397_247#
+ m3_n1397_247# VSUBS 018SRAM_strap1_bndry_256x8m81_9/w_91_512# m3_n1397_1009# VSUBS
+ 018SRAM_strap1_bndry_256x8m81_9/w_91_512# 018SRAM_strap1_bndry_256x8m81_9/w_91_512#
+ m3_n1397_1009# 018SRAM_cell1_2x_256x8m81_55/018SRAM_cell1_256x8m81_1/a_430_96# 018SRAM_cell1_2x_256x8m81_55/018SRAM_cell1_256x8m81_1/a_110_96#
+ VSUBS x018SRAM_cell1_2x_256x8m81
X018SRAM_cell1_2x_256x8m81_30 018SRAM_strap1_bndry_256x8m81_9/w_91_512# m3_n1397_6355#
+ m3_n1397_6355# VSUBS 018SRAM_strap1_bndry_256x8m81_9/w_91_512# m3_n1397_7069# VSUBS
+ 018SRAM_strap1_bndry_256x8m81_9/w_91_512# 018SRAM_strap1_bndry_256x8m81_9/w_91_512#
+ m3_n1397_7069# 018SRAM_cell1_2x_256x8m81_9/018SRAM_cell1_256x8m81_1/a_430_96# 018SRAM_cell1_2x_256x8m81_9/018SRAM_cell1_256x8m81_1/a_110_96#
+ VSUBS x018SRAM_cell1_2x_256x8m81
X018SRAM_cell1_2x_256x8m81_96 018SRAM_strap1_bndry_256x8m81_9/w_91_512# m3_n1397_3931#
+ m3_n1397_3931# VSUBS 018SRAM_strap1_bndry_256x8m81_9/w_91_512# m3_n1397_4645# VSUBS
+ 018SRAM_strap1_bndry_256x8m81_9/w_91_512# 018SRAM_strap1_bndry_256x8m81_9/w_91_512#
+ m3_n1397_4645# 018SRAM_cell1_2x_256x8m81_96/018SRAM_cell1_256x8m81_1/a_430_96# 018SRAM_cell1_2x_256x8m81_96/018SRAM_cell1_256x8m81_1/a_110_96#
+ VSUBS x018SRAM_cell1_2x_256x8m81
X018SRAM_cell1_2x_256x8m81_63 018SRAM_strap1_bndry_256x8m81_9/w_91_512# m3_n1397_5143#
+ m3_n1397_5143# VSUBS 018SRAM_strap1_bndry_256x8m81_9/w_91_512# m3_n1397_5857# VSUBS
+ 018SRAM_strap1_bndry_256x8m81_9/w_91_512# 018SRAM_strap1_bndry_256x8m81_9/w_91_512#
+ m3_n1397_5857# 018SRAM_cell1_2x_256x8m81_65/018SRAM_cell1_256x8m81_1/a_430_96# 018SRAM_cell1_2x_256x8m81_65/018SRAM_cell1_256x8m81_1/a_110_96#
+ VSUBS x018SRAM_cell1_2x_256x8m81
X018SRAM_cell1_2x_256x8m81_74 018SRAM_strap1_bndry_256x8m81_9/w_91_512# m3_n1397_5143#
+ m3_n1397_5143# VSUBS 018SRAM_strap1_bndry_256x8m81_9/w_91_512# m3_n1397_5857# VSUBS
+ 018SRAM_strap1_bndry_256x8m81_9/w_91_512# 018SRAM_strap1_bndry_256x8m81_9/w_91_512#
+ m3_n1397_5857# 018SRAM_cell1_2x_256x8m81_82/018SRAM_cell1_256x8m81_1/a_430_96# 018SRAM_cell1_2x_256x8m81_82/018SRAM_cell1_256x8m81_1/a_110_96#
+ VSUBS x018SRAM_cell1_2x_256x8m81
X018SRAM_cell1_2x_256x8m81_85 018SRAM_strap1_bndry_256x8m81_9/w_91_512# m3_n1397_247#
+ m3_n1397_247# VSUBS 018SRAM_strap1_bndry_256x8m81_9/w_91_512# m3_n1397_1009# VSUBS
+ 018SRAM_strap1_bndry_256x8m81_9/w_91_512# 018SRAM_strap1_bndry_256x8m81_9/w_91_512#
+ m3_n1397_1009# 018SRAM_cell1_2x_256x8m81_98/018SRAM_cell1_256x8m81_1/a_430_96# 018SRAM_cell1_2x_256x8m81_98/018SRAM_cell1_256x8m81_1/a_110_96#
+ VSUBS x018SRAM_cell1_2x_256x8m81
X018SRAM_cell1_2x_256x8m81_303 018SRAM_strap1_bndry_256x8m81_9/w_91_512# m3_n1397_5143#
+ m3_n1397_5143# VSUBS 018SRAM_strap1_bndry_256x8m81_9/w_91_512# m3_n1397_5857# VSUBS
+ 018SRAM_strap1_bndry_256x8m81_9/w_91_512# 018SRAM_strap1_bndry_256x8m81_9/w_91_512#
+ m3_n1397_5857# 018SRAM_cell1_2x_256x8m81_994/018SRAM_cell1_256x8m81_1/a_430_96#
+ 018SRAM_cell1_2x_256x8m81_994/018SRAM_cell1_256x8m81_1/a_110_96# VSUBS x018SRAM_cell1_2x_256x8m81
X018SRAM_cell1_2x_256x8m81_347 018SRAM_strap1_bndry_256x8m81_9/w_91_512# m3_n1397_247#
+ m3_n1397_247# VSUBS 018SRAM_strap1_bndry_256x8m81_9/w_91_512# m3_n1397_1009# VSUBS
+ 018SRAM_strap1_bndry_256x8m81_9/w_91_512# 018SRAM_strap1_bndry_256x8m81_9/w_91_512#
+ m3_n1397_1009# 018SRAM_cell1_2x_256x8m81_992/018SRAM_cell1_256x8m81_1/a_430_96#
+ 018SRAM_cell1_2x_256x8m81_992/018SRAM_cell1_256x8m81_1/a_110_96# VSUBS x018SRAM_cell1_2x_256x8m81
X018SRAM_cell1_2x_256x8m81_336 018SRAM_strap1_bndry_256x8m81_9/w_91_512# m3_n1397_2719#
+ m3_n1397_2719# VSUBS 018SRAM_strap1_bndry_256x8m81_9/w_91_512# m3_n1397_3433# VSUBS
+ 018SRAM_strap1_bndry_256x8m81_9/w_91_512# 018SRAM_strap1_bndry_256x8m81_9/w_91_512#
+ m3_n1397_3433# 018SRAM_cell1_2x_256x8m81_477/018SRAM_cell1_256x8m81_1/a_430_96#
+ 018SRAM_cell1_2x_256x8m81_477/018SRAM_cell1_256x8m81_1/a_110_96# VSUBS x018SRAM_cell1_2x_256x8m81
X018SRAM_cell1_2x_256x8m81_369 018SRAM_strap1_bndry_256x8m81_9/w_91_512# m3_n1397_16051#
+ m3_n1397_16051# VSUBS 018SRAM_strap1_bndry_256x8m81_9/w_91_512# m3_n1397_16765#
+ VSUBS 018SRAM_strap1_bndry_256x8m81_9/w_91_512# 018SRAM_strap1_bndry_256x8m81_9/w_91_512#
+ m3_n1397_16765# 018SRAM_cell1_2x_256x8m81_477/018SRAM_cell1_256x8m81_1/a_430_96#
+ 018SRAM_cell1_2x_256x8m81_477/018SRAM_cell1_256x8m81_1/a_110_96# VSUBS x018SRAM_cell1_2x_256x8m81
X018SRAM_cell1_2x_256x8m81_325 018SRAM_strap1_bndry_256x8m81_9/w_91_512# m3_n1397_5143#
+ m3_n1397_5143# VSUBS 018SRAM_strap1_bndry_256x8m81_9/w_91_512# m3_n1397_5857# VSUBS
+ 018SRAM_strap1_bndry_256x8m81_9/w_91_512# 018SRAM_strap1_bndry_256x8m81_9/w_91_512#
+ m3_n1397_5857# 018SRAM_cell1_2x_256x8m81_996/018SRAM_cell1_256x8m81_1/a_430_96#
+ 018SRAM_cell1_2x_256x8m81_996/018SRAM_cell1_256x8m81_1/a_110_96# VSUBS x018SRAM_cell1_2x_256x8m81