* NGSPICE file created from gf180mcu_ocd_ip_sram__sram256x8m8wm1.ext - technology: gf180mcuD

.subckt x018SRAM_cell1_dummy_3v256x8m81 m3_82_330# a_248_342# a_248_592# w_82_512#
+ a_62_178# m2_346_89# m2_134_89# VSUBS
X0 a_248_592# a_192_298# a_110_250# w_82_512# pfet_03v3 ad=0.1613p pd=1.39u as=0.1238p ps=1.44u w=0.28u l=0.28u
X1 a_248_342# a_192_298# a_110_250# VSUBS nfet_03v3 ad=0.171p pd=1.33u as=0.15665p ps=1.32u w=0.45u l=0.28u
X2 a_192_298# a_110_250# a_248_592# w_82_512# pfet_03v3 ad=0.1238p pd=1.44u as=0.1613p ps=1.39u w=0.28u l=0.28u
X3 a_192_298# a_110_250# a_248_342# VSUBS nfet_03v3 ad=0.15665p pd=1.32u as=0.171p ps=1.33u w=0.45u l=0.28u
X4 a_110_250# a_62_178# a_110_96# VSUBS nfet_03v3 ad=0.15665p pd=1.32u as=0.1208p ps=1.42u w=0.28u l=0.36u
X5 a_192_298# a_62_178# a_430_96# VSUBS nfet_03v3 ad=0.15665p pd=1.32u as=0.1208p ps=1.42u w=0.28u l=0.36u
.ends

.subckt new_dummyrow_unit_3v256x8m81 018SRAM_cell1_dummy_3v256x8m81_8/m2_346_89# 018SRAM_cell1_dummy_3v256x8m81_8/m2_134_89#
+ 018SRAM_cell1_dummy_3v256x8m81_14/m2_346_89# 018SRAM_cell1_dummy_3v256x8m81_14/m2_134_89#
+ 018SRAM_cell1_dummy_3v256x8m81_15/m2_134_89# 018SRAM_cell1_dummy_3v256x8m81_9/m2_346_89#
+ 018SRAM_cell1_dummy_3v256x8m81_9/m2_134_89# 018SRAM_cell1_dummy_3v256x8m81_15/m2_346_89#
+ 018SRAM_cell1_dummy_3v256x8m81_0/m2_134_89# 018SRAM_cell1_dummy_3v256x8m81_0/m2_346_89#
+ 018SRAM_cell1_dummy_3v256x8m81_1/m2_346_89# 018SRAM_cell1_dummy_3v256x8m81_1/m2_134_89#
+ 018SRAM_cell1_dummy_3v256x8m81_2/m2_346_89# 018SRAM_cell1_dummy_3v256x8m81_2/m2_134_89#
+ 018SRAM_cell1_dummy_3v256x8m81_3/m2_346_89# 018SRAM_cell1_dummy_3v256x8m81_3/m2_134_89#
+ 018SRAM_cell1_dummy_3v256x8m81_4/m2_346_89# 018SRAM_cell1_dummy_3v256x8m81_4/m2_134_89#
+ 018SRAM_cell1_dummy_3v256x8m81_10/m2_134_89# 018SRAM_cell1_dummy_3v256x8m81_10/m2_346_89#
+ 018SRAM_cell1_dummy_3v256x8m81_5/m2_134_89# 018SRAM_cell1_dummy_3v256x8m81_11/m2_346_89#
+ 018SRAM_cell1_dummy_3v256x8m81_5/m2_346_89# 018SRAM_cell1_dummy_3v256x8m81_11/m2_134_89#
+ 018SRAM_cell1_dummy_3v256x8m81_6/m2_346_89# 018SRAM_cell1_dummy_3v256x8m81_6/m2_134_89#
+ 018SRAM_cell1_dummy_3v256x8m81_12/m2_346_89# 018SRAM_strap1_3v256x8m81_1/w_91_512#
+ 018SRAM_cell1_dummy_3v256x8m81_12/m2_134_89# VSUBS 018SRAM_cell1_dummy_3v256x8m81_7/m2_346_89#
+ 018SRAM_strap1_3v256x8m81_1/a_91_178# 018SRAM_cell1_dummy_3v256x8m81_13/m2_346_89#
+ 018SRAM_cell1_dummy_3v256x8m81_13/m2_134_89# 018SRAM_cell1_dummy_3v256x8m81_7/m2_134_89#
X018SRAM_cell1_dummy_3v256x8m81_10 018SRAM_strap1_3v256x8m81_1/a_91_178# VSUBS 018SRAM_strap1_3v256x8m81_1/w_91_512#
+ 018SRAM_strap1_3v256x8m81_1/w_91_512# 018SRAM_strap1_3v256x8m81_1/a_91_178# 018SRAM_cell1_dummy_3v256x8m81_10/m2_346_89#
+ 018SRAM_cell1_dummy_3v256x8m81_10/m2_134_89# VSUBS x018SRAM_cell1_dummy_3v256x8m81
X018SRAM_cell1_dummy_3v256x8m81_11 018SRAM_strap1_3v256x8m81_1/a_91_178# VSUBS 018SRAM_strap1_3v256x8m81_1/w_91_512#
+ 018SRAM_strap1_3v256x8m81_1/w_91_512# 018SRAM_strap1_3v256x8m81_1/a_91_178# 018SRAM_cell1_dummy_3v256x8m81_11/m2_346_89#
+ 018SRAM_cell1_dummy_3v256x8m81_11/m2_134_89# VSUBS x018SRAM_cell1_dummy_3v256x8m81
X018SRAM_cell1_dummy_3v256x8m81_12 018SRAM_strap1_3v256x8m81_1/a_91_178# VSUBS 018SRAM_strap1_3v256x8m81_1/w_91_512#
+ 018SRAM_strap1_3v256x8m81_1/w_91_512# 018SRAM_strap1_3v256x8m81_1/a_91_178# 018SRAM_cell1_dummy_3v256x8m81_12/m2_346_89#
+ 018SRAM_cell1_dummy_3v256x8m81_12/m2_134_89# VSUBS x018SRAM_cell1_dummy_3v256x8m81
X018SRAM_cell1_dummy_3v256x8m81_13 018SRAM_strap1_3v256x8m81_1/a_91_178# VSUBS 018SRAM_strap1_3v256x8m81_1/w_91_512#
+ 018SRAM_strap1_3v256x8m81_1/w_91_512# 018SRAM_strap1_3v256x8m81_1/a_91_178# 018SRAM_cell1_dummy_3v256x8m81_13/m2_346_89#
+ 018SRAM_cell1_dummy_3v256x8m81_13/m2_134_89# VSUBS x018SRAM_cell1_dummy_3v256x8m81
X018SRAM_cell1_dummy_3v256x8m81_15 018SRAM_strap1_3v256x8m81_1/a_91_178# VSUBS 018SRAM_strap1_3v256x8m81_1/w_91_512#
+ 018SRAM_strap1_3v256x8m81_1/w_91_512# 018SRAM_strap1_3v256x8m81_1/a_91_178# 018SRAM_cell1_dummy_3v256x8m81_15/m2_346_89#
+ 018SRAM_cell1_dummy_3v256x8m81_15/m2_134_89# VSUBS x018SRAM_cell1_dummy_3v256x8m81
X018SRAM_cell1_dummy_3v256x8m81_14 018SRAM_strap1_3v256x8m81_1/a_91_178# VSUBS 018SRAM_strap1_3v256x8m81_1/w_91_512#
+ 018SRAM_strap1_3v256x8m81_1/w_91_512# 018SRAM_strap1_3v256x8m81_1/a_91_178# 018SRAM_cell1_dummy_3v256x8m81_14/m2_346_89#
+ 018SRAM_cell1_dummy_3v256x8m81_14/m2_134_89# VSUBS x018SRAM_cell1_dummy_3v256x8m81
X018SRAM_cell1_dummy_3v256x8m81_0 018SRAM_strap1_3v256x8m81_1/a_91_178# VSUBS 018SRAM_strap1_3v256x8m81_1/w_91_512#
+ 018SRAM_strap1_3v256x8m81_1/w_91_512# 018SRAM_strap1_3v256x8m81_1/a_91_178# 018SRAM_cell1_dummy_3v256x8m81_0/m2_346_89#
+ 018SRAM_cell1_dummy_3v256x8m81_0/m2_134_89# VSUBS x018SRAM_cell1_dummy_3v256x8m81
X018SRAM_cell1_dummy_3v256x8m81_1 018SRAM_strap1_3v256x8m81_1/a_91_178# VSUBS 018SRAM_strap1_3v256x8m81_1/w_91_512#
+ 018SRAM_strap1_3v256x8m81_1/w_91_512# 018SRAM_strap1_3v256x8m81_1/a_91_178# 018SRAM_cell1_dummy_3v256x8m81_1/m2_346_89#
+ 018SRAM_cell1_dummy_3v256x8m81_1/m2_134_89# VSUBS x018SRAM_cell1_dummy_3v256x8m81
X018SRAM_cell1_dummy_3v256x8m81_2 018SRAM_strap1_3v256x8m81_1/a_91_178# VSUBS 018SRAM_strap1_3v256x8m81_1/w_91_512#
+ 018SRAM_strap1_3v256x8m81_1/w_91_512# 018SRAM_strap1_3v256x8m81_1/a_91_178# 018SRAM_cell1_dummy_3v256x8m81_2/m2_346_89#
+ 018SRAM_cell1_dummy_3v256x8m81_2/m2_134_89# VSUBS x018SRAM_cell1_dummy_3v256x8m81
X018SRAM_cell1_dummy_3v256x8m81_3 018SRAM_strap1_3v256x8m81_1/a_91_178# VSUBS 018SRAM_strap1_3v256x8m81_1/w_91_512#
+ 018SRAM_strap1_3v256x8m81_1/w_91_512# 018SRAM_strap1_3v256x8m81_1/a_91_178# 018SRAM_cell1_dummy_3v256x8m81_3/m2_346_89#
+ 018SRAM_cell1_dummy_3v256x8m81_3/m2_134_89# VSUBS x018SRAM_cell1_dummy_3v256x8m81
X018SRAM_cell1_dummy_3v256x8m81_4 018SRAM_strap1_3v256x8m81_1/a_91_178# VSUBS 018SRAM_strap1_3v256x8m81_1/w_91_512#
+ 018SRAM_strap1_3v256x8m81_1/w_91_512# 018SRAM_strap1_3v256x8m81_1/a_91_178# 018SRAM_cell1_dummy_3v256x8m81_4/m2_346_89#
+ 018SRAM_cell1_dummy_3v256x8m81_4/m2_134_89# VSUBS x018SRAM_cell1_dummy_3v256x8m81
X018SRAM_cell1_dummy_3v256x8m81_5 018SRAM_strap1_3v256x8m81_1/a_91_178# VSUBS 018SRAM_strap1_3v256x8m81_1/w_91_512#
+ 018SRAM_strap1_3v256x8m81_1/w_91_512# 018SRAM_strap1_3v256x8m81_1/a_91_178# 018SRAM_cell1_dummy_3v256x8m81_5/m2_346_89#
+ 018SRAM_cell1_dummy_3v256x8m81_5/m2_134_89# VSUBS x018SRAM_cell1_dummy_3v256x8m81
X018SRAM_cell1_dummy_3v256x8m81_6 018SRAM_strap1_3v256x8m81_1/a_91_178# VSUBS 018SRAM_strap1_3v256x8m81_1/w_91_512#
+ 018SRAM_strap1_3v256x8m81_1/w_91_512# 018SRAM_strap1_3v256x8m81_1/a_91_178# 018SRAM_cell1_dummy_3v256x8m81_6/m2_346_89#
+ 018SRAM_cell1_dummy_3v256x8m81_6/m2_134_89# VSUBS x018SRAM_cell1_dummy_3v256x8m81
X018SRAM_cell1_dummy_3v256x8m81_7 018SRAM_strap1_3v256x8m81_1/a_91_178# VSUBS 018SRAM_strap1_3v256x8m81_1/w_91_512#
+ 018SRAM_strap1_3v256x8m81_1/w_91_512# 018SRAM_strap1_3v256x8m81_1/a_91_178# 018SRAM_cell1_dummy_3v256x8m81_7/m2_346_89#
+ 018SRAM_cell1_dummy_3v256x8m81_7/m2_134_89# VSUBS x018SRAM_cell1_dummy_3v256x8m81
X018SRAM_cell1_dummy_3v256x8m81_8 018SRAM_strap1_3v256x8m81_1/a_91_178# VSUBS 018SRAM_strap1_3v256x8m81_1/w_91_512#
+ 018SRAM_strap1_3v256x8m81_1/w_91_512# 018SRAM_strap1_3v256x8m81_1/a_91_178# 018SRAM_cell1_dummy_3v256x8m81_8/m2_346_89#
+ 018SRAM_cell1_dummy_3v256x8m81_8/m2_134_89# VSUBS x018SRAM_cell1_dummy_3v256x8m81
X018SRAM_cell1_dummy_3v256x8m81_9 018SRAM_strap1_3v256x8m81_1/a_91_178# VSUBS 018SRAM_strap1_3v256x8m81_1/w_91_512#
+ 018SRAM_strap1_3v256x8m81_1/w_91_512# 018SRAM_strap1_3v256x8m81_1/a_91_178# 018SRAM_cell1_dummy_3v256x8m81_9/m2_346_89#
+ 018SRAM_cell1_dummy_3v256x8m81_9/m2_134_89# VSUBS x018SRAM_cell1_dummy_3v256x8m81
.ends

.subckt new_dummyrowunit01_3v256x8m81 018SRAM_cell1_dummy_3v256x8m81_8/m2_134_89#
+ 018SRAM_cell1_dummy_3v256x8m81_8/m2_346_89# 018SRAM_cell1_dummy_3v256x8m81_14/m2_346_89#
+ 018SRAM_cell1_dummy_3v256x8m81_14/m2_134_89# 018SRAM_cell1_dummy_3v256x8m81_15/m2_134_89#
+ 018SRAM_cell1_dummy_3v256x8m81_9/m2_134_89# 018SRAM_cell1_dummy_3v256x8m81_15/m2_346_89#
+ 018SRAM_cell1_dummy_3v256x8m81_9/m2_346_89# 018SRAM_cell1_dummy_3v256x8m81_0/m2_346_89#
+ 018SRAM_cell1_dummy_3v256x8m81_0/m2_134_89# 018SRAM_cell1_dummy_3v256x8m81_1/m2_346_89#
+ 018SRAM_cell1_dummy_3v256x8m81_1/m2_134_89# 018SRAM_cell1_dummy_3v256x8m81_2/m2_346_89#
+ 018SRAM_cell1_dummy_3v256x8m81_2/m2_134_89# 018SRAM_cell1_dummy_3v256x8m81_3/m2_346_89#
+ 018SRAM_cell1_dummy_3v256x8m81_3/m2_134_89# 018SRAM_cell1_dummy_3v256x8m81_4/m2_346_89#
+ 018SRAM_cell1_dummy_3v256x8m81_10/m2_346_89# 018SRAM_cell1_dummy_3v256x8m81_4/m2_134_89#
+ 018SRAM_cell1_dummy_3v256x8m81_10/m2_134_89# 018SRAM_cell1_dummy_3v256x8m81_11/m2_346_89#
+ 018SRAM_cell1_dummy_3v256x8m81_5/m2_346_89# 018SRAM_cell1_dummy_3v256x8m81_5/m2_134_89#
+ 018SRAM_cell1_dummy_3v256x8m81_11/m2_134_89# 018SRAM_cell1_dummy_3v256x8m81_12/m2_346_89#
+ 018SRAM_cell1_dummy_3v256x8m81_6/m2_346_89# 018SRAM_cell1_dummy_3v256x8m81_6/m2_134_89#
+ 018SRAM_strap1_3v256x8m81_1/w_91_512# 018SRAM_strap1_3v256x8m81_1/a_91_178# 018SRAM_cell1_dummy_3v256x8m81_12/m2_134_89#
+ VSUBS 018SRAM_cell1_dummy_3v256x8m81_13/m2_346_89# 018SRAM_cell1_dummy_3v256x8m81_13/m2_134_89#
+ 018SRAM_cell1_dummy_3v256x8m81_7/m2_346_89# 018SRAM_cell1_dummy_3v256x8m81_7/m2_134_89#
X018SRAM_cell1_dummy_3v256x8m81_10 018SRAM_strap1_3v256x8m81_1/a_91_178# VSUBS 018SRAM_strap1_3v256x8m81_1/w_91_512#
+ 018SRAM_strap1_3v256x8m81_1/w_91_512# 018SRAM_strap1_3v256x8m81_1/a_91_178# 018SRAM_cell1_dummy_3v256x8m81_10/m2_346_89#
+ 018SRAM_cell1_dummy_3v256x8m81_10/m2_134_89# VSUBS x018SRAM_cell1_dummy_3v256x8m81
X018SRAM_cell1_dummy_3v256x8m81_11 018SRAM_strap1_3v256x8m81_1/a_91_178# VSUBS 018SRAM_strap1_3v256x8m81_1/w_91_512#
+ 018SRAM_strap1_3v256x8m81_1/w_91_512# 018SRAM_strap1_3v256x8m81_1/a_91_178# 018SRAM_cell1_dummy_3v256x8m81_11/m2_346_89#
+ 018SRAM_cell1_dummy_3v256x8m81_11/m2_134_89# VSUBS x018SRAM_cell1_dummy_3v256x8m81
X018SRAM_cell1_dummy_3v256x8m81_12 018SRAM_strap1_3v256x8m81_1/a_91_178# VSUBS 018SRAM_strap1_3v256x8m81_1/w_91_512#
+ 018SRAM_strap1_3v256x8m81_1/w_91_512# 018SRAM_strap1_3v256x8m81_1/a_91_178# 018SRAM_cell1_dummy_3v256x8m81_12/m2_346_89#
+ 018SRAM_cell1_dummy_3v256x8m81_12/m2_134_89# VSUBS x018SRAM_cell1_dummy_3v256x8m81
X018SRAM_cell1_dummy_3v256x8m81_13 018SRAM_strap1_3v256x8m81_1/a_91_178# VSUBS 018SRAM_strap1_3v256x8m81_1/w_91_512#
+ 018SRAM_strap1_3v256x8m81_1/w_91_512# 018SRAM_strap1_3v256x8m81_1/a_91_178# 018SRAM_cell1_dummy_3v256x8m81_13/m2_346_89#
+ 018SRAM_cell1_dummy_3v256x8m81_13/m2_134_89# VSUBS x018SRAM_cell1_dummy_3v256x8m81
X018SRAM_cell1_dummy_3v256x8m81_15 018SRAM_strap1_3v256x8m81_1/a_91_178# VSUBS 018SRAM_strap1_3v256x8m81_1/w_91_512#
+ 018SRAM_strap1_3v256x8m81_1/w_91_512# 018SRAM_strap1_3v256x8m81_1/a_91_178# 018SRAM_cell1_dummy_3v256x8m81_15/m2_346_89#
+ 018SRAM_cell1_dummy_3v256x8m81_15/m2_134_89# VSUBS x018SRAM_cell1_dummy_3v256x8m81
X018SRAM_cell1_dummy_3v256x8m81_14 018SRAM_strap1_3v256x8m81_1/a_91_178# VSUBS 018SRAM_strap1_3v256x8m81_1/w_91_512#
+ 018SRAM_strap1_3v256x8m81_1/w_91_512# 018SRAM_strap1_3v256x8m81_1/a_91_178# 018SRAM_cell1_dummy_3v256x8m81_14/m2_346_89#
+ 018SRAM_cell1_dummy_3v256x8m81_14/m2_134_89# VSUBS x018SRAM_cell1_dummy_3v256x8m81
X018SRAM_cell1_dummy_3v256x8m81_0 018SRAM_strap1_3v256x8m81_1/a_91_178# VSUBS 018SRAM_strap1_3v256x8m81_1/w_91_512#
+ 018SRAM_strap1_3v256x8m81_1/w_91_512# 018SRAM_strap1_3v256x8m81_1/a_91_178# 018SRAM_cell1_dummy_3v256x8m81_0/m2_346_89#
+ 018SRAM_cell1_dummy_3v256x8m81_0/m2_134_89# VSUBS x018SRAM_cell1_dummy_3v256x8m81
X018SRAM_cell1_dummy_3v256x8m81_1 018SRAM_strap1_3v256x8m81_1/a_91_178# VSUBS 018SRAM_strap1_3v256x8m81_1/w_91_512#
+ 018SRAM_strap1_3v256x8m81_1/w_91_512# 018SRAM_strap1_3v256x8m81_1/a_91_178# 018SRAM_cell1_dummy_3v256x8m81_1/m2_346_89#
+ 018SRAM_cell1_dummy_3v256x8m81_1/m2_134_89# VSUBS x018SRAM_cell1_dummy_3v256x8m81
X018SRAM_cell1_dummy_3v256x8m81_2 018SRAM_strap1_3v256x8m81_1/a_91_178# VSUBS 018SRAM_strap1_3v256x8m81_1/w_91_512#
+ 018SRAM_strap1_3v256x8m81_1/w_91_512# 018SRAM_strap1_3v256x8m81_1/a_91_178# 018SRAM_cell1_dummy_3v256x8m81_2/m2_346_89#
+ 018SRAM_cell1_dummy_3v256x8m81_2/m2_134_89# VSUBS x018SRAM_cell1_dummy_3v256x8m81
X018SRAM_cell1_dummy_3v256x8m81_3 018SRAM_strap1_3v256x8m81_1/a_91_178# VSUBS 018SRAM_strap1_3v256x8m81_1/w_91_512#
+ 018SRAM_strap1_3v256x8m81_1/w_91_512# 018SRAM_strap1_3v256x8m81_1/a_91_178# 018SRAM_cell1_dummy_3v256x8m81_3/m2_346_89#
+ 018SRAM_cell1_dummy_3v256x8m81_3/m2_134_89# VSUBS x018SRAM_cell1_dummy_3v256x8m81
X018SRAM_cell1_dummy_3v256x8m81_4 018SRAM_strap1_3v256x8m81_1/a_91_178# VSUBS 018SRAM_strap1_3v256x8m81_1/w_91_512#
+ 018SRAM_strap1_3v256x8m81_1/w_91_512# 018SRAM_strap1_3v256x8m81_1/a_91_178# 018SRAM_cell1_dummy_3v256x8m81_4/m2_346_89#
+ 018SRAM_cell1_dummy_3v256x8m81_4/m2_134_89# VSUBS x018SRAM_cell1_dummy_3v256x8m81
X018SRAM_cell1_dummy_3v256x8m81_5 018SRAM_strap1_3v256x8m81_1/a_91_178# VSUBS 018SRAM_strap1_3v256x8m81_1/w_91_512#
+ 018SRAM_strap1_3v256x8m81_1/w_91_512# 018SRAM_strap1_3v256x8m81_1/a_91_178# 018SRAM_cell1_dummy_3v256x8m81_5/m2_346_89#
+ 018SRAM_cell1_dummy_3v256x8m81_5/m2_134_89# VSUBS x018SRAM_cell1_dummy_3v256x8m81
X018SRAM_cell1_dummy_3v256x8m81_6 018SRAM_strap1_3v256x8m81_1/a_91_178# VSUBS 018SRAM_strap1_3v256x8m81_1/w_91_512#
+ 018SRAM_strap1_3v256x8m81_1/w_91_512# 018SRAM_strap1_3v256x8m81_1/a_91_178# 018SRAM_cell1_dummy_3v256x8m81_6/m2_346_89#
+ 018SRAM_cell1_dummy_3v256x8m81_6/m2_134_89# VSUBS x018SRAM_cell1_dummy_3v256x8m81
X018SRAM_cell1_dummy_3v256x8m81_7 018SRAM_strap1_3v256x8m81_1/a_91_178# VSUBS 018SRAM_strap1_3v256x8m81_1/w_91_512#
+ 018SRAM_strap1_3v256x8m81_1/w_91_512# 018SRAM_strap1_3v256x8m81_1/a_91_178# 018SRAM_cell1_dummy_3v256x8m81_7/m2_346_89#
+ 018SRAM_cell1_dummy_3v256x8m81_7/m2_134_89# VSUBS x018SRAM_cell1_dummy_3v256x8m81
X018SRAM_cell1_dummy_3v256x8m81_8 018SRAM_strap1_3v256x8m81_1/a_91_178# VSUBS 018SRAM_strap1_3v256x8m81_1/w_91_512#
+ 018SRAM_strap1_3v256x8m81_1/w_91_512# 018SRAM_strap1_3v256x8m81_1/a_91_178# 018SRAM_cell1_dummy_3v256x8m81_8/m2_346_89#
+ 018SRAM_cell1_dummy_3v256x8m81_8/m2_134_89# VSUBS x018SRAM_cell1_dummy_3v256x8m81
X018SRAM_cell1_dummy_3v256x8m81_9 018SRAM_strap1_3v256x8m81_1/a_91_178# VSUBS 018SRAM_strap1_3v256x8m81_1/w_91_512#
+ 018SRAM_strap1_3v256x8m81_1/w_91_512# 018SRAM_strap1_3v256x8m81_1/a_91_178# 018SRAM_cell1_dummy_3v256x8m81_9/m2_346_89#
+ 018SRAM_cell1_dummy_3v256x8m81_9/m2_134_89# VSUBS x018SRAM_cell1_dummy_3v256x8m81
.ends

.subckt x018SRAM_cell1_3v256x8m81 m3_82_330# a_248_342# a_248_592# a_62_178# w_30_512#
+ a_430_96# a_110_96# VSUBS
X0 a_248_592# a_192_298# a_110_250# w_30_512# pfet_03v3 ad=0.1613p pd=1.39u as=0.1238p ps=1.44u w=0.28u l=0.28u
X1 a_248_342# a_192_298# a_110_250# VSUBS nfet_03v3 ad=0.171p pd=1.33u as=0.15665p ps=1.32u w=0.45u l=0.28u
X2 a_192_298# a_110_250# a_248_592# w_30_512# pfet_03v3 ad=0.1238p pd=1.44u as=0.1613p ps=1.39u w=0.28u l=0.28u
X3 a_192_298# a_110_250# a_248_342# VSUBS nfet_03v3 ad=0.15665p pd=1.32u as=0.171p ps=1.33u w=0.45u l=0.28u
X4 a_110_250# a_62_178# a_110_96# VSUBS nfet_03v3 ad=0.15665p pd=1.32u as=0.1208p ps=1.42u w=0.28u l=0.36u
X5 a_192_298# a_62_178# a_430_96# VSUBS nfet_03v3 ad=0.15665p pd=1.32u as=0.1208p ps=1.42u w=0.28u l=0.36u
.ends

.subckt x018SRAM_cell1_cutPC_3v256x8m81 m3_82_330# a_248_342# a_248_592# a_62_178#
+ w_30_512# a_430_96# a_110_96# VSUBS
X0 a_248_592# a_192_298# a_110_250# w_30_512# pfet_03v3 ad=0.1613p pd=1.39u as=0.1238p ps=1.44u w=0.28u l=0.28u
X1 a_248_342# a_192_298# a_110_250# VSUBS nfet_03v3 ad=0.171p pd=1.33u as=0.15665p ps=1.32u w=0.45u l=0.28u
X2 a_192_298# a_110_250# a_248_592# w_30_512# pfet_03v3 ad=0.1238p pd=1.44u as=0.1613p ps=1.39u w=0.28u l=0.28u
X3 a_192_298# a_110_250# a_248_342# VSUBS nfet_03v3 ad=0.15665p pd=1.32u as=0.171p ps=1.33u w=0.45u l=0.28u
X4 a_110_250# a_62_178# a_110_96# VSUBS nfet_03v3 ad=0.15665p pd=1.32u as=0.1208p ps=1.42u w=0.28u l=0.36u
X5 a_192_298# a_62_178# a_430_96# VSUBS nfet_03v3 ad=0.15665p pd=1.32u as=0.1208p ps=1.42u w=0.28u l=0.36u
.ends

.subckt array16_256_dummy_01_3v256x8m81 018SRAM_cell1_cutPC_3v256x8m81_55/a_62_178#
+ 018SRAM_cell1_cutPC_3v256x8m81_10/m3_82_330# 018SRAM_cell1_cutPC_3v256x8m81_10/a_248_342#
+ 018SRAM_cell1_cutPC_3v256x8m81_51/w_30_512# 018SRAM_cell1_cutPC_3v256x8m81_51/a_62_178#
+ 018SRAM_cell1_cutPC_3v256x8m81_2/m3_82_330# 018SRAM_cell1_cutPC_3v256x8m81_53/a_248_592#
+ 018SRAM_cell1_cutPC_3v256x8m81_6/w_30_512# 018SRAM_cell1_cutPC_3v256x8m81_2/a_248_592#
+ 018SRAM_cell1_cutPC_3v256x8m81_50/m3_82_330# 018SRAM_cell1_cutPC_3v256x8m81_11/a_248_342#
+ 018SRAM_cell1_cutPC_3v256x8m81_11/m3_82_330# 018SRAM_cell1_cutPC_3v256x8m81_2/w_30_512#
+ 018SRAM_cell1_cutPC_3v256x8m81_50/a_248_342# 018SRAM_cell1_cutPC_3v256x8m81_61/a_62_178#
+ VDD_uq0 018SRAM_cell1_cutPC_3v256x8m81_60/m3_82_330# 018SRAM_cell1_cutPC_3v256x8m81_60/a_248_342#
+ 018SRAM_cell1_cutPC_3v256x8m81_3/m3_82_330# 018SRAM_cell1_cutPC_3v256x8m81_3/a_248_342#
+ 018SRAM_cell1_cutPC_3v256x8m81_31/m3_82_330# 018SRAM_cell1_cutPC_3v256x8m81_13/a_62_178#
+ 018SRAM_cell1_cutPC_3v256x8m81_52/a_248_592# 018SRAM_cell1_cutPC_3v256x8m81_31/a_248_342#
+ 018SRAM_cell1_cutPC_3v256x8m81_3/a_248_592# 018SRAM_cell1_cutPC_3v256x8m81_61/a_248_592#
+ 018SRAM_cell1_cutPC_3v256x8m81_51/m3_82_330# 018SRAM_cell1_cutPC_3v256x8m81_51/a_248_342#
+ 018SRAM_cell1_cutPC_3v256x8m81_12/a_248_342# 018SRAM_cell1_cutPC_3v256x8m81_12/m3_82_330#
+ 018SRAM_cell1_cutPC_3v256x8m81_7/a_62_178# 018SRAM_cell1_cutPC_3v256x8m81_61/m3_82_330#
+ 018SRAM_cell1_cutPC_3v256x8m81_61/a_248_342# 018SRAM_cell1_cutPC_3v256x8m81_4/a_248_342#
+ 018SRAM_cell1_cutPC_3v256x8m81_4/m3_82_330# 018SRAM_cell1_cutPC_3v256x8m81_51/a_248_592#
+ 018SRAM_cell1_cutPC_3v256x8m81_3/a_62_178# 018SRAM_cell1_cutPC_3v256x8m81_56/a_62_178#
+ 018SRAM_cell1_cutPC_3v256x8m81_50/w_30_512# 018SRAM_cell1_cutPC_3v256x8m81_52/a_62_178#
+ 018SRAM_cell1_cutPC_3v256x8m81_4/a_248_592# 018SRAM_cell1_cutPC_3v256x8m81_52/a_248_342#
+ 018SRAM_cell1_cutPC_3v256x8m81_13/m3_82_330# 018SRAM_cell1_cutPC_3v256x8m81_52/m3_82_330#
+ 018SRAM_cell1_cutPC_3v256x8m81_13/a_248_342# 018SRAM_cell1_cutPC_3v256x8m81_62/m3_82_330#
+ 018SRAM_cell1_cutPC_3v256x8m81_62/a_248_342# 018SRAM_cell1_cutPC_3v256x8m81_7/w_30_512#
+ 018SRAM_cell1_cutPC_3v256x8m81_5/m3_82_330# 018SRAM_cell1_cutPC_3v256x8m81_5/a_248_342#
+ 018SRAM_cell1_cutPC_3v256x8m81_50/a_248_592# 018SRAM_cell1_cutPC_3v256x8m81_3/w_30_512#
+ VSS_uq0 018SRAM_cell1_cutPC_3v256x8m81_5/a_248_592# 018SRAM_cell1_cutPC_3v256x8m81_62/a_62_178#
+ 018SRAM_cell1_cutPC_3v256x8m81_53/m3_82_330# 018SRAM_cell1_cutPC_3v256x8m81_14/m3_82_330#
+ 018SRAM_cell1_cutPC_3v256x8m81_53/a_248_342# 018SRAM_cell1_cutPC_3v256x8m81_14/a_248_342#
+ 018SRAM_cell1_cutPC_3v256x8m81_14/a_62_178# 018SRAM_cell1_cutPC_3v256x8m81_63/m3_82_330#
+ 018SRAM_cell1_cutPC_3v256x8m81_63/a_248_342# 018SRAM_cell1_cutPC_3v256x8m81_6/m3_82_330#
+ 018SRAM_cell1_cutPC_3v256x8m81_6/a_248_342# 018SRAM_cell1_cutPC_3v256x8m81_10/a_62_178#
+ 018SRAM_cell1_cutPC_3v256x8m81_49/a_248_592# 018SRAM_cell1_cutPC_3v256x8m81_8/a_62_178#
+ 018SRAM_cell1_cutPC_3v256x8m81_6/a_248_592# 018SRAM_cell1_cutPC_3v256x8m81_54/m3_82_330#
+ 018SRAM_cell1_cutPC_3v256x8m81_15/m3_82_330# 018SRAM_cell1_cutPC_3v256x8m81_15/a_248_342#
+ 018SRAM_cell1_cutPC_3v256x8m81_54/a_248_342# 018SRAM_cell1_cutPC_3v256x8m81_4/a_62_178#
+ 018SRAM_cell1_cutPC_3v256x8m81_62/w_30_512# 018SRAM_cell1_cutPC_3v256x8m81_57/a_62_178#
+ 018SRAM_cell1_cutPC_3v256x8m81_9/a_110_96# 018SRAM_cell1_cutPC_3v256x8m81_7/a_248_342#
+ 018SRAM_cell1_cutPC_3v256x8m81_0/a_62_178# 018SRAM_cell1_cutPC_3v256x8m81_7/m3_82_330#
+ 018SRAM_cell1_cutPC_3v256x8m81_49/w_30_512# 018SRAM_cell1_cutPC_3v256x8m81_48/a_248_592#
+ 018SRAM_cell1_cutPC_3v256x8m81_53/a_62_178# 018SRAM_cell1_cutPC_3v256x8m81_53/w_30_512#
+ 018SRAM_cell1_cutPC_3v256x8m81_7/a_248_592# 018SRAM_cell1_cutPC_3v256x8m81_55/a_248_342#
+ 018SRAM_cell1_cutPC_3v256x8m81_55/m3_82_330# 018SRAM_cell1_cutPC_3v256x8m81_8/w_30_512#
+ 018SRAM_cell1_cutPC_3v256x8m81_4/w_30_512# 018SRAM_cell1_cutPC_3v256x8m81_8/a_248_342#
+ 018SRAM_cell1_cutPC_3v256x8m81_8/m3_82_330# 018SRAM_cell1_cutPC_3v256x8m81_63/a_62_178#
+ 018SRAM_cell1_cutPC_3v256x8m81_0/w_30_512# 018SRAM_cell1_cutPC_3v256x8m81_8/a_248_592#
+ 018SRAM_cell1_cutPC_3v256x8m81_48/a_62_178# 018SRAM_cell1_cutPC_3v256x8m81_15/a_62_178#
+ 018SRAM_cell1_cutPC_3v256x8m81_56/a_248_342# 018SRAM_cell1_cutPC_3v256x8m81_56/m3_82_330#
+ 018SRAM_cell1_cutPC_3v256x8m81_11/a_62_178# 018SRAM_cell1_cutPC_3v256x8m81_9/m3_82_330#
+ 018SRAM_cell1_cutPC_3v256x8m81_9/a_248_342# 018SRAM_cell1_cutPC_3v256x8m81_9/a_62_178#
+ 018SRAM_cell1_cutPC_3v256x8m81_5/a_62_178# 018SRAM_cell1_cutPC_3v256x8m81_58/a_62_178#
+ 018SRAM_cell1_cutPC_3v256x8m81_9/a_248_592# 018SRAM_cell1_cutPC_3v256x8m81_57/m3_82_330#
+ 018SRAM_cell1_cutPC_3v256x8m81_9/a_430_96# 018SRAM_cell1_cutPC_3v256x8m81_57/a_248_342#
+ 018SRAM_cell1_cutPC_3v256x8m81_54/a_62_178# 018SRAM_cell1_cutPC_3v256x8m81_48/w_30_512#
+ 018SRAM_cell1_cutPC_3v256x8m81_52/w_30_512# 018SRAM_cell1_cutPC_3v256x8m81_50/a_62_178#
+ VDD VSS 018SRAM_cell1_cutPC_3v256x8m81_48/m3_82_330# 018SRAM_cell1_cutPC_3v256x8m81_48/a_248_342#
+ 018SRAM_cell1_cutPC_3v256x8m81_9/w_30_512# 018SRAM_cell1_cutPC_3v256x8m81_58/a_248_342#
+ 018SRAM_cell1_cutPC_3v256x8m81_5/w_30_512# 018SRAM_cell1_cutPC_3v256x8m81_58/m3_82_330#
+ 018SRAM_cell1_cutPC_3v256x8m81_31/a_62_178# 018SRAM_cell1_cutPC_3v256x8m81_0/m3_82_330#
+ 018SRAM_cell1_cutPC_3v256x8m81_0/a_248_342# 018SRAM_cell1_cutPC_3v256x8m81_60/a_62_178#
+ 018SRAM_cell1_cutPC_3v256x8m81_49/a_62_178# 018SRAM_cell1_cutPC_3v256x8m81_49/m3_82_330#
+ 018SRAM_cell1_cutPC_3v256x8m81_49/a_248_342# 018SRAM_cell1_cutPC_3v256x8m81_12/a_62_178#
+ 018SRAM_cell1_cutPC_3v256x8m81_59/m3_82_330# 018SRAM_cell1_cutPC_3v256x8m81_59/a_248_342#
+ 018SRAM_cell1_cutPC_3v256x8m81_61/w_30_512# 018SRAM_cell1_cutPC_3v256x8m81_6/a_62_178#
+ 018SRAM_cell1_cutPC_3v256x8m81_59/a_62_178# 018SRAM_cell1_cutPC_3v256x8m81_2/a_62_178#
+ VSUBS
X018SRAM_cell1_cutPC_3v256x8m81_4 018SRAM_cell1_cutPC_3v256x8m81_4/m3_82_330# 018SRAM_cell1_cutPC_3v256x8m81_4/a_248_342#
+ 018SRAM_cell1_cutPC_3v256x8m81_4/a_248_592# 018SRAM_cell1_cutPC_3v256x8m81_4/a_62_178#
+ 018SRAM_cell1_cutPC_3v256x8m81_4/w_30_512# 018SRAM_cell1_cutPC_3v256x8m81_9/a_430_96#
+ 018SRAM_cell1_cutPC_3v256x8m81_9/a_110_96# VSUBS x018SRAM_cell1_cutPC_3v256x8m81
X018SRAM_cell1_cutPC_3v256x8m81_5 018SRAM_cell1_cutPC_3v256x8m81_5/m3_82_330# 018SRAM_cell1_cutPC_3v256x8m81_5/a_248_342#
+ 018SRAM_cell1_cutPC_3v256x8m81_5/a_248_592# 018SRAM_cell1_cutPC_3v256x8m81_5/a_62_178#
+ 018SRAM_cell1_cutPC_3v256x8m81_5/w_30_512# 018SRAM_cell1_cutPC_3v256x8m81_9/a_430_96#
+ 018SRAM_cell1_cutPC_3v256x8m81_9/a_110_96# VSUBS x018SRAM_cell1_cutPC_3v256x8m81
X018SRAM_cell1_cutPC_3v256x8m81_6 018SRAM_cell1_cutPC_3v256x8m81_6/m3_82_330# 018SRAM_cell1_cutPC_3v256x8m81_6/a_248_342#
+ 018SRAM_cell1_cutPC_3v256x8m81_6/a_248_592# 018SRAM_cell1_cutPC_3v256x8m81_6/a_62_178#
+ 018SRAM_cell1_cutPC_3v256x8m81_6/w_30_512# 018SRAM_cell1_cutPC_3v256x8m81_9/a_430_96#
+ 018SRAM_cell1_cutPC_3v256x8m81_9/a_110_96# VSUBS x018SRAM_cell1_cutPC_3v256x8m81
X018SRAM_cell1_cutPC_3v256x8m81_8 018SRAM_cell1_cutPC_3v256x8m81_8/m3_82_330# 018SRAM_cell1_cutPC_3v256x8m81_8/a_248_342#
+ 018SRAM_cell1_cutPC_3v256x8m81_8/a_248_592# 018SRAM_cell1_cutPC_3v256x8m81_8/a_62_178#
+ 018SRAM_cell1_cutPC_3v256x8m81_8/w_30_512# 018SRAM_cell1_cutPC_3v256x8m81_9/a_430_96#
+ 018SRAM_cell1_cutPC_3v256x8m81_9/a_110_96# VSUBS x018SRAM_cell1_cutPC_3v256x8m81
X018SRAM_cell1_cutPC_3v256x8m81_7 018SRAM_cell1_cutPC_3v256x8m81_7/m3_82_330# 018SRAM_cell1_cutPC_3v256x8m81_7/a_248_342#
+ 018SRAM_cell1_cutPC_3v256x8m81_7/a_248_592# 018SRAM_cell1_cutPC_3v256x8m81_7/a_62_178#
+ 018SRAM_cell1_cutPC_3v256x8m81_7/w_30_512# 018SRAM_cell1_cutPC_3v256x8m81_9/a_430_96#
+ 018SRAM_cell1_cutPC_3v256x8m81_9/a_110_96# VSUBS x018SRAM_cell1_cutPC_3v256x8m81
X018SRAM_cell1_cutPC_3v256x8m81_9 018SRAM_cell1_cutPC_3v256x8m81_9/m3_82_330# 018SRAM_cell1_cutPC_3v256x8m81_9/a_248_342#
+ 018SRAM_cell1_cutPC_3v256x8m81_9/a_248_592# 018SRAM_cell1_cutPC_3v256x8m81_9/a_62_178#
+ 018SRAM_cell1_cutPC_3v256x8m81_9/w_30_512# 018SRAM_cell1_cutPC_3v256x8m81_9/a_430_96#
+ 018SRAM_cell1_cutPC_3v256x8m81_9/a_110_96# VSUBS x018SRAM_cell1_cutPC_3v256x8m81
X018SRAM_cell1_cutPC_3v256x8m81_60 018SRAM_cell1_cutPC_3v256x8m81_60/m3_82_330# 018SRAM_cell1_cutPC_3v256x8m81_60/a_248_342#
+ 018SRAM_cell1_cutPC_3v256x8m81_3/a_248_592# 018SRAM_cell1_cutPC_3v256x8m81_60/a_62_178#
+ 018SRAM_cell1_cutPC_3v256x8m81_3/w_30_512# 018SRAM_cell1_cutPC_3v256x8m81_9/a_430_96#
+ 018SRAM_cell1_cutPC_3v256x8m81_9/a_110_96# VSUBS x018SRAM_cell1_cutPC_3v256x8m81
X018SRAM_cell1_cutPC_3v256x8m81_50 018SRAM_cell1_cutPC_3v256x8m81_50/m3_82_330# 018SRAM_cell1_cutPC_3v256x8m81_50/a_248_342#
+ 018SRAM_cell1_cutPC_3v256x8m81_50/a_248_592# 018SRAM_cell1_cutPC_3v256x8m81_50/a_62_178#
+ 018SRAM_cell1_cutPC_3v256x8m81_50/w_30_512# 018SRAM_cell1_cutPC_3v256x8m81_9/a_430_96#
+ 018SRAM_cell1_cutPC_3v256x8m81_9/a_110_96# VSUBS x018SRAM_cell1_cutPC_3v256x8m81
X018SRAM_cell1_cutPC_3v256x8m81_61 018SRAM_cell1_cutPC_3v256x8m81_61/m3_82_330# 018SRAM_cell1_cutPC_3v256x8m81_61/a_248_342#
+ 018SRAM_cell1_cutPC_3v256x8m81_61/a_248_592# 018SRAM_cell1_cutPC_3v256x8m81_61/a_62_178#
+ 018SRAM_cell1_cutPC_3v256x8m81_61/w_30_512# 018SRAM_cell1_cutPC_3v256x8m81_9/a_430_96#
+ 018SRAM_cell1_cutPC_3v256x8m81_9/a_110_96# VSUBS x018SRAM_cell1_cutPC_3v256x8m81
X018SRAM_cell1_cutPC_3v256x8m81_51 018SRAM_cell1_cutPC_3v256x8m81_51/m3_82_330# 018SRAM_cell1_cutPC_3v256x8m81_51/a_248_342#
+ 018SRAM_cell1_cutPC_3v256x8m81_51/a_248_592# 018SRAM_cell1_cutPC_3v256x8m81_51/a_62_178#
+ 018SRAM_cell1_cutPC_3v256x8m81_51/w_30_512# 018SRAM_cell1_cutPC_3v256x8m81_9/a_430_96#
+ 018SRAM_cell1_cutPC_3v256x8m81_9/a_110_96# VSUBS x018SRAM_cell1_cutPC_3v256x8m81
X018SRAM_cell1_cutPC_3v256x8m81_62 018SRAM_cell1_cutPC_3v256x8m81_62/m3_82_330# 018SRAM_cell1_cutPC_3v256x8m81_62/a_248_342#
+ VDD_uq0 018SRAM_cell1_cutPC_3v256x8m81_62/a_62_178# 018SRAM_cell1_cutPC_3v256x8m81_62/w_30_512#
+ 018SRAM_cell1_cutPC_3v256x8m81_9/a_430_96# 018SRAM_cell1_cutPC_3v256x8m81_9/a_110_96#
+ VSUBS x018SRAM_cell1_cutPC_3v256x8m81
X018SRAM_cell1_cutPC_3v256x8m81_52 018SRAM_cell1_cutPC_3v256x8m81_52/m3_82_330# 018SRAM_cell1_cutPC_3v256x8m81_52/a_248_342#
+ 018SRAM_cell1_cutPC_3v256x8m81_52/a_248_592# 018SRAM_cell1_cutPC_3v256x8m81_52/a_62_178#
+ 018SRAM_cell1_cutPC_3v256x8m81_52/w_30_512# 018SRAM_cell1_cutPC_3v256x8m81_9/a_430_96#
+ 018SRAM_cell1_cutPC_3v256x8m81_9/a_110_96# VSUBS x018SRAM_cell1_cutPC_3v256x8m81
X018SRAM_cell1_cutPC_3v256x8m81_53 018SRAM_cell1_cutPC_3v256x8m81_53/m3_82_330# 018SRAM_cell1_cutPC_3v256x8m81_53/a_248_342#
+ 018SRAM_cell1_cutPC_3v256x8m81_53/a_248_592# 018SRAM_cell1_cutPC_3v256x8m81_53/a_62_178#
+ 018SRAM_cell1_cutPC_3v256x8m81_53/w_30_512# 018SRAM_cell1_cutPC_3v256x8m81_9/a_430_96#
+ 018SRAM_cell1_cutPC_3v256x8m81_9/a_110_96# VSUBS x018SRAM_cell1_cutPC_3v256x8m81
X018SRAM_cell1_cutPC_3v256x8m81_31 018SRAM_cell1_cutPC_3v256x8m81_31/m3_82_330# 018SRAM_cell1_cutPC_3v256x8m81_31/a_248_342#
+ 018SRAM_cell1_cutPC_3v256x8m81_61/a_248_592# 018SRAM_cell1_cutPC_3v256x8m81_31/a_62_178#
+ 018SRAM_cell1_cutPC_3v256x8m81_61/w_30_512# 018SRAM_cell1_cutPC_3v256x8m81_9/a_430_96#
+ 018SRAM_cell1_cutPC_3v256x8m81_9/a_110_96# VSUBS x018SRAM_cell1_cutPC_3v256x8m81
X018SRAM_cell1_cutPC_3v256x8m81_63 018SRAM_cell1_cutPC_3v256x8m81_63/m3_82_330# 018SRAM_cell1_cutPC_3v256x8m81_63/a_248_342#
+ 018SRAM_cell1_cutPC_3v256x8m81_2/a_248_592# 018SRAM_cell1_cutPC_3v256x8m81_63/a_62_178#
+ 018SRAM_cell1_cutPC_3v256x8m81_2/w_30_512# 018SRAM_cell1_cutPC_3v256x8m81_9/a_430_96#
+ 018SRAM_cell1_cutPC_3v256x8m81_9/a_110_96# VSUBS x018SRAM_cell1_cutPC_3v256x8m81
X018SRAM_cell1_cutPC_3v256x8m81_10 018SRAM_cell1_cutPC_3v256x8m81_10/m3_82_330# 018SRAM_cell1_cutPC_3v256x8m81_10/a_248_342#
+ 018SRAM_cell1_cutPC_3v256x8m81_53/a_248_592# 018SRAM_cell1_cutPC_3v256x8m81_10/a_62_178#
+ 018SRAM_cell1_cutPC_3v256x8m81_53/w_30_512# 018SRAM_cell1_cutPC_3v256x8m81_9/a_430_96#
+ 018SRAM_cell1_cutPC_3v256x8m81_9/a_110_96# VSUBS x018SRAM_cell1_cutPC_3v256x8m81
X018SRAM_cell1_cutPC_3v256x8m81_54 018SRAM_cell1_cutPC_3v256x8m81_54/m3_82_330# 018SRAM_cell1_cutPC_3v256x8m81_54/a_248_342#
+ 018SRAM_cell1_cutPC_3v256x8m81_9/a_248_592# 018SRAM_cell1_cutPC_3v256x8m81_54/a_62_178#
+ 018SRAM_cell1_cutPC_3v256x8m81_9/w_30_512# 018SRAM_cell1_cutPC_3v256x8m81_9/a_430_96#
+ 018SRAM_cell1_cutPC_3v256x8m81_9/a_110_96# VSUBS x018SRAM_cell1_cutPC_3v256x8m81
X018SRAM_cell1_cutPC_3v256x8m81_11 018SRAM_cell1_cutPC_3v256x8m81_11/m3_82_330# 018SRAM_cell1_cutPC_3v256x8m81_11/a_248_342#
+ 018SRAM_cell1_cutPC_3v256x8m81_52/a_248_592# 018SRAM_cell1_cutPC_3v256x8m81_11/a_62_178#
+ 018SRAM_cell1_cutPC_3v256x8m81_52/w_30_512# 018SRAM_cell1_cutPC_3v256x8m81_9/a_430_96#
+ 018SRAM_cell1_cutPC_3v256x8m81_9/a_110_96# VSUBS x018SRAM_cell1_cutPC_3v256x8m81
X018SRAM_cell1_cutPC_3v256x8m81_55 018SRAM_cell1_cutPC_3v256x8m81_55/m3_82_330# 018SRAM_cell1_cutPC_3v256x8m81_55/a_248_342#
+ 018SRAM_cell1_cutPC_3v256x8m81_8/a_248_592# 018SRAM_cell1_cutPC_3v256x8m81_55/a_62_178#
+ 018SRAM_cell1_cutPC_3v256x8m81_8/w_30_512# 018SRAM_cell1_cutPC_3v256x8m81_9/a_430_96#
+ 018SRAM_cell1_cutPC_3v256x8m81_9/a_110_96# VSUBS x018SRAM_cell1_cutPC_3v256x8m81
X018SRAM_cell1_cutPC_3v256x8m81_12 018SRAM_cell1_cutPC_3v256x8m81_12/m3_82_330# 018SRAM_cell1_cutPC_3v256x8m81_12/a_248_342#
+ 018SRAM_cell1_cutPC_3v256x8m81_51/a_248_592# 018SRAM_cell1_cutPC_3v256x8m81_12/a_62_178#
+ 018SRAM_cell1_cutPC_3v256x8m81_51/w_30_512# 018SRAM_cell1_cutPC_3v256x8m81_9/a_430_96#
+ 018SRAM_cell1_cutPC_3v256x8m81_9/a_110_96# VSUBS x018SRAM_cell1_cutPC_3v256x8m81
X018SRAM_cell1_cutPC_3v256x8m81_56 018SRAM_cell1_cutPC_3v256x8m81_56/m3_82_330# 018SRAM_cell1_cutPC_3v256x8m81_56/a_248_342#
+ 018SRAM_cell1_cutPC_3v256x8m81_7/a_248_592# 018SRAM_cell1_cutPC_3v256x8m81_56/a_62_178#
+ 018SRAM_cell1_cutPC_3v256x8m81_7/w_30_512# 018SRAM_cell1_cutPC_3v256x8m81_9/a_430_96#
+ 018SRAM_cell1_cutPC_3v256x8m81_9/a_110_96# VSUBS x018SRAM_cell1_cutPC_3v256x8m81